# CIF file generated by openbabel 3.0.0, see http://openbabel.sf.net
data_I
_chemical_name_common 'D:\! BYU CALCULATION\Acidic MOF Patent\Periodic_60_00\UiO67_based_cell-pos-final.pdb'
_cell_length_a 27.012
_cell_length_b 27.281
_cell_length_c 27.104
_cell_angle_alpha 89.65
_cell_angle_beta 90.07
_cell_angle_gamma 89.93
loop_
    _atom_site_label
    _atom_site_type_symbol
    _atom_site_fract_x
    _atom_site_fract_y
    _atom_site_fract_z
    _atom_site_occupancy
    C0      C    0.26451   0.34037   0.49068   1.000
    C1      C    0.67618   0.63446   0.49038   1.000
    C2      C    0.67575   0.33999   0.53624   1.000
    C3      C    0.26528   0.63397   0.53606   1.000
    C4      C    0.82627   0.46846   0.80905   1.000
    C5      C    0.11870   0.46881   0.21377   1.000
    C6      C    0.82531   0.50642   0.21274   1.000
    C7      C    0.11905   0.50655   0.80772   1.000
    C8      C    0.26746   0.84416   0.99275   1.000
    C9      C    0.67793   0.13523   0.98947   1.000
    C10     C    0.67878   0.84188   0.03417   1.000
    C11     C    0.26727   0.13525   0.03225   1.000
    C12     C    0.82371   0.96698   0.30723   1.000
    C13     C    0.11759   0.96854   0.71349   1.000
    C14     C    0.82487   0.00765   0.71382   1.000
    C15     C    0.11802   0.01037   0.30826   1.000
    C16     C    0.76831   0.34110   0.99349   1.000
    C17     C    0.17816   0.63820   0.98519   1.000
    C18     C    0.17866   0.34086   0.03605   1.000
    C19     C    0.76736   0.63428   0.03107   1.000
    C20     C    0.32407   0.46483   0.30848   1.000
    C21     C    0.62076   0.46830   0.71371   1.000
    C22     C    0.32440   0.50639   0.71382   1.000
    C23     C    0.62022   0.50684   0.30734   1.000
    C24     C    0.76663   0.83967   0.48920   1.000
    C25     C    0.17351   0.13462   0.49193   1.000
    C26     C    0.17609   0.83970   0.53226   1.000
    C27     C    0.76304   0.13483   0.53584   1.000
    C28     C    0.32369   0.96893   0.80757   1.000
    C29     C    0.61835   0.96832   0.21355   1.000
    C30     C    0.32426   0.00632   0.21495   1.000
    C31     C    0.61970   0.00793   0.80694   1.000
    C32     C    0.22672   0.30580   0.49252   1.000
    C33     C    0.71283   0.67019   0.49200   1.000
    C34     C    0.71226   0.30418   0.53547   1.000
    C35     C    0.22810   0.66920   0.53443   1.000
    C36     C    0.79220   0.46840   0.77045   1.000
    C37     C    0.15337   0.46865   0.25167   1.000
    C38     C    0.79129   0.50667   0.25126   1.000
    C39     C    0.15425   0.50649   0.77038   1.000
    C40     C    0.23082   0.80850   0.99246   1.000
    C41     C    0.71543   0.17012   0.99021   1.000
    C42     C    0.71591   0.80637   0.03310   1.000
    C43     C    0.23047   0.17080   0.03199   1.000
    C44     C    0.78893   0.96787   0.26949   1.000
    C45     C    0.15258   0.96839   0.75112   1.000
    C46     C    0.79112   0.00694   0.75252   1.000
    C47     C    0.15318   0.01005   0.27081   1.000
    C48     C    0.73170   0.30532   0.99334   1.000
    C49     C    0.21506   0.67361   0.98604   1.000
    C50     C    0.21509   0.30506   0.03479   1.000
    C51     C    0.73103   0.67049   0.03169   1.000
    C52     C    0.28937   0.46605   0.27045   1.000
    C53     C    0.65627   0.46837   0.75090   1.000
    C54     C    0.28991   0.50652   0.75182   1.000
    C55     C    0.65567   0.50685   0.27022   1.000
    C56     C    0.72914   0.80480   0.49049   1.000
    C57     C    0.21012   0.17039   0.49315   1.000
    C58     C    0.21264   0.80367   0.53181   1.000
    C59     C    0.72660   0.17061   0.53499   1.000
    C60     C    0.28858   0.96835   0.77009   1.000
    C61     C    0.65297   0.96849   0.25152   1.000
    C62     C    0.28906   0.00701   0.25237   1.000
    C63     C    0.65550   0.00683   0.77016   1.000
    C64     C    0.35330   0.37020   0.50495   1.000
    C65     C    0.58810   0.60288   0.50672   1.000
    C66     C    0.58925   0.37156   0.51606   1.000
    C67     C    0.35255   0.60146   0.51754   1.000
    C68     C    0.85412   0.48527   0.89597   1.000
    C69     C    0.08922   0.48503   0.12648   1.000
    C70     C    0.85395   0.48863   0.12570   1.000
    C71     C    0.08923   0.49077   0.89538   1.000
    C72     C    0.35518   0.87433   0.00790   1.000
    C73     C    0.59013   0.10462   0.00494   1.000
    C74     C    0.59135   0.87406   0.01716   1.000
    C75     C    0.35451   0.10446   0.01384   1.000
    C76     C    0.85271   0.98195   0.39534   1.000
    C77     C    0.08799   0.98645   0.62601   1.000
    C78     C    0.85268   0.99323   0.62553   1.000
    C79     C    0.08815   0.99232   0.39523   1.000
    C80     C    0.85621   0.37101   0.00852   1.000
    C81     C    0.09099   0.60524   0.00343   1.000
    C82     C    0.09182   0.37396   0.01871   1.000
    C83     C    0.85497   0.60276   0.01343   1.000
    C84     C    0.35399   0.48152   0.39589   1.000
    C85     C    0.58991   0.48525   0.62686   1.000
    C86     C    0.35393   0.48929   0.62634   1.000
    C87     C    0.58969   0.48876   0.39412   1.000
    C88     C    0.85394   0.87146   0.50506   1.000
    C89     C    0.08571   0.10454   0.50687   1.000
    C90     C    0.08852   0.87173   0.51495   1.000
    C91     C    0.85006   0.10331   0.51750   1.000
    C92     C    0.35365   0.98831   0.89406   1.000
    C93     C    0.58879   0.98513   0.12567   1.000
    C94     C    0.35404   0.98848   0.12795   1.000
    C95     C    0.58820   0.99230   0.89453   1.000
    C96     C    0.31374   0.33087   0.50525   1.000
    C97     C    0.62744   0.64225   0.50636   1.000
    C98     C    0.62784   0.33214   0.51824   1.000
    C99     C    0.31378   0.64155   0.51864   1.000
    C100    C    0.81509   0.48488   0.85668   1.000
    C101    C    0.12877   0.48494   0.16540   1.000
    C102    C    0.81468   0.48967   0.16500   1.000
    C103    C    0.12842   0.49031   0.85616   1.000
    C104    C    0.31658   0.83490   0.00690   1.000
    C105    C    0.62918   0.14421   0.00472   1.000
    C106    C    0.63005   0.83388   0.01819   1.000
    C107    C    0.31555   0.14389   0.01568   1.000
    C108    C    0.81394   0.98208   0.35575   1.000
    C109    C    0.12743   0.98467   0.66515   1.000
    C110    C    0.81412   0.99248   0.66552   1.000
    C111    C    0.12771   0.99355   0.35641   1.000
    C112    C    0.81709   0.33186   0.00893   1.000
    C113    C    0.12967   0.64560   0.00244   1.000
    C114    C    0.12996   0.33359   0.01952   1.000
    C115    C    0.81568   0.64230   0.01428   1.000
    C116    C    0.31455   0.48154   0.35649   1.000
    C117    C    0.63016   0.48451   0.66527   1.000
    C118    C    0.31440   0.49011   0.66556   1.000
    C119    C    0.62977   0.49056   0.35578   1.000
    C120    C    0.81538   0.83107   0.50529   1.000
    C121    C    0.12446   0.14381   0.50606   1.000
    C122    C    0.12751   0.83196   0.51576   1.000
    C123    C    0.81132   0.14281   0.51875   1.000
    C124    C    0.31380   0.98524   0.85565   1.000
    C125    C    0.62815   0.98379   0.16496   1.000
    C126    C    0.31458   0.98957   0.16710   1.000
    C127    C    0.62821   0.99319   0.85598   1.000
    C128    C    0.23705   0.25715   0.50606   1.000
    C129    C    0.70124   0.71816   0.50617   1.000
    C130    C    0.70079   0.25696   0.51916   1.000
    C131    C    0.23916   0.71684   0.51820   1.000
    C132    C    0.74310   0.48209   0.77946   1.000
    C133    C    0.20243   0.48213   0.24126   1.000
    C134    C    0.74228   0.49342   0.24196   1.000
    C135    C    0.20304   0.49278   0.78112   1.000
    C136    C    0.24285   0.75963   0.00339   1.000
    C137    C    0.70513   0.21822   0.00476   1.000
    C138    C    0.70489   0.75825   0.01896   1.000
    C139    C    0.24164   0.21898   0.01819   1.000
    C140    C    0.74010   0.98188   0.28000   1.000
    C141    C    0.20172   0.98135   0.74090   1.000
    C142    C    0.74236   0.99285   0.74348   1.000
    C143    C    0.20192   0.99529   0.28122   1.000
    C144    C    0.74347   0.25659   0.00572   1.000
    C145    C    0.20469   0.72096   0.00255   1.000
    C146    C    0.20347   0.25754   0.01926   1.000
    C147    C    0.74266   0.71889   0.01823   1.000
    C148    C    0.24068   0.48138   0.28037   1.000
    C149    C    0.70526   0.48174   0.74005   1.000
    C150    C    0.24090   0.49288   0.74197   1.000
    C151    C    0.70461   0.49380   0.28114   1.000
    C152    C    0.73958   0.75669   0.50577   1.000
    C153    C    0.19841   0.21888   0.50599   1.000
    C154    C    0.20120   0.75578   0.51754   1.000
    C155    C    0.73830   0.21814   0.51920   1.000
    C156    C    0.23949   0.98119   0.78034   1.000
    C157    C    0.70199   0.98168   0.24100   1.000
    C158    C    0.24007   0.99380   0.24237   1.000
    C159    C    0.70420   0.99338   0.78222   1.000
    C160    C    0.26601   0.49821   0.36427   1.000
    C161    C    0.26529   0.47524   0.65770   1.000
    C162    C    0.67893   0.47643   0.36475   1.000
    C163    C    0.67918   0.49911   0.65637   1.000
    C164    C    0.82438   0.78204   0.51964   1.000
    C165    C    0.11789   0.78348   0.50123   1.000
    C166    C    0.82116   0.19075   0.50263   1.000
    C167    C    0.11439   0.19248   0.51968   1.000
    C168    C    0.26430   0.99868   0.86428   1.000
    C169    C    0.26550   0.97411   0.15939   1.000
    C170    C    0.67678   0.97788   0.86587   1.000
    C171    C    0.67740   0.99777   0.15647   1.000
    C172    C    0.82672   0.28321   0.02332   1.000
    C173    C    0.11960   0.28526   0.00502   1.000
    C174    C    0.82519   0.69067   0.99893   1.000
    C175    C    0.12071   0.69389   0.01874   1.000
    C176    C    0.76592   0.50002   0.86399   1.000
    C177    C    0.76553   0.47413   0.15795   1.000
    C178    C    0.17740   0.47516   0.86498   1.000
    C179    C    0.17768   0.50002   0.15695   1.000
    C180    C    0.32658   0.78578   0.01978   1.000
    C181    C    0.62076   0.78533   0.00317   1.000
    C182    C    0.32510   0.19255   0.00100   1.000
    C183    C    0.62036   0.19313   0.01882   1.000
    C184    C    0.76550   0.99878   0.36390   1.000
    C185    C    0.76526   0.97599   0.65888   1.000
    C186    C    0.17657   0.97759   0.36490   1.000
    C187    C    0.17668   0.99891   0.65685   1.000
    C188    C    0.32241   0.28177   0.51949   1.000
    C189    C    0.61832   0.28474   0.50115   1.000
    C190    C    0.32281   0.68971   0.50193   1.000
    C191    C    0.61781   0.69028   0.52237   1.000
    C192    C    0.22943   0.49689   0.32819   1.000
    C193    C    0.22901   0.47784   0.69401   1.000
    C194    C    0.71620   0.47973   0.32955   1.000
    C195    C    0.71651   0.49633   0.69168   1.000
    C196    C    0.78833   0.74568   0.51920   1.000
    C197    C    0.15252   0.74578   0.50274   1.000
    C198    C    0.78636   0.22813   0.50381   1.000
    C199    C    0.14929   0.22983   0.51872   1.000
    C200    C    0.22750   0.99523   0.82857   1.000
    C201    C    0.22852   0.97763   0.19470   1.000
    C202    C    0.71460   0.97971   0.83107   1.000
    C203    C    0.71399   0.99539   0.19263   1.000
    C204    C    0.79211   0.24569   0.02011   1.000
    C205    C    0.15460   0.24779   0.00576   1.000
    C206    C    0.79090   0.72855   0.00207   1.000
    C207    C    0.15642   0.73073   0.01830   1.000
    C208    C    0.73037   0.49760   0.82705   1.000
    C209    C    0.72966   0.47784   0.19437   1.000
    C210    C    0.21433   0.47768   0.82941   1.000
    C211    C    0.21416   0.49749   0.19322   1.000
    C212    C    0.29174   0.74848   0.01653   1.000
    C213    C    0.65609   0.74822   0.00487   1.000
    C214    C    0.29004   0.22981   0.00317   1.000
    C215    C    0.65648   0.22935   0.01837   1.000
    C216    C    0.72877   0.99746   0.32785   1.000
    C217    C    0.72999   0.97727   0.69593   1.000
    C218    C    0.21354   0.98030   0.32940   1.000
    C219    C    0.21364   0.99576   0.69257   1.000
    C220    C    0.28591   0.24570   0.51905   1.000
    C221    C    0.65280   0.24712   0.50256   1.000
    C222    C    0.28744   0.72683   0.50263   1.000
    C223    C    0.65245   0.72793   0.52071   1.000
    N224    N    0.24873   0.38769   0.46821   1.000
    N225    N    0.69276   0.58738   0.46891   1.000
    N226    N    0.68965   0.38580   0.56166   1.000
    N227    N    0.25159   0.58897   0.56358   1.000
    N228    N    0.87474   0.44673   0.79636   1.000
    N229    N    0.06980   0.44766   0.22621   1.000
    N230    N    0.87335   0.52853   0.22528   1.000
    N231    N    0.07121   0.52787   0.79281   1.000
    N232    N    0.25165   0.89194   0.97187   1.000
    N233    N    0.69333   0.08804   0.96766   1.000
    N234    N    0.69370   0.88926   0.05579   1.000
    N235    N    0.25240   0.08899   0.05645   1.000
    N236    N    0.87262   0.94727   0.29365   1.000
    N237    N    0.06899   0.94779   0.72718   1.000
    N238    N    0.87365   0.02803   0.72666   1.000
    N239    N    0.06933   0.03142   0.29406   1.000
    N240    N    0.75264   0.38928   0.97264   1.000
    N241    N    0.19336   0.59306   0.95925   1.000
    N242    N    0.19377   0.38608   0.06180   1.000
    N243    N    0.75215   0.58589   0.05114   1.000
    N244    N    0.37321   0.44404   0.29642   1.000
    N245    N    0.57309   0.44469   0.72718   1.000
    N246    N    0.37333   0.52699   0.72640   1.000
    N247    N    0.57278   0.53046   0.29373   1.000
    N248    N    0.75222   0.88586   0.46444   1.000
    N249    N    0.18920   0.08621   0.47175   1.000
    N250    N    0.19099   0.88585   0.55646   1.000
    N251    N    0.74832   0.08907   0.56129   1.000
    N252    N    0.37264   0.94918   0.79307   1.000
    N253    N    0.56960   0.94837   0.22720   1.000
    N254    N    0.37256   0.02812   0.22853   1.000
    N255    N    0.57190   0.02829   0.79156   1.000
    H256    H    0.18956   0.31716   0.48086   1.000
    H257    H    0.75029   0.66037   0.48005   1.000
    H258    H    0.74918   0.31326   0.54938   1.000
    H259    H    0.19122   0.65948   0.54808   1.000
    H260    H    0.80409   0.45575   0.73404   1.000
    H261    H    0.14258   0.45589   0.28852   1.000
    H262    H    0.80321   0.51935   0.28764   1.000
    H263    H    0.14364   0.51921   0.73349   1.000
    H264    H    0.19329   0.81879   0.98109   1.000
    H265    H    0.75248   0.15938   0.97777   1.000
    H266    H    0.75323   0.81660   0.04505   1.000
    H267    H    0.19347   0.16083   0.04520   1.000
    H268    H    0.79949   0.95526   0.23266   1.000
    H269    H    0.14143   0.95614   0.78802   1.000
    H270    H    0.80285   0.01948   0.78905   1.000
    H271    H    0.14249   0.02248   0.23381   1.000
    H272    H    0.69432   0.31547   0.98146   1.000
    H273    H    0.25171   0.66383   0.97190   1.000
    H274    H    0.25215   0.31429   0.04815   1.000
    H275    H    0.69375   0.66067   0.04420   1.000
    H276    H    0.29993   0.45381   0.23344   1.000
    H277    H    0.64582   0.45579   0.78794   1.000
    H278    H    0.30116   0.51909   0.78853   1.000
    H279    H    0.64525   0.51942   0.23318   1.000
    H280    H    0.69223   0.81536   0.47743   1.000
    H281    H    0.24773   0.16041   0.48193   1.000
    H282    H    0.24974   0.81308   0.54502   1.000
    H283    H    0.68954   0.16151   0.54860   1.000
    H284    H    0.29962   0.95614   0.73334   1.000
    H285    H    0.64215   0.95610   0.28849   1.000
    H286    H    0.29994   0.02009   0.28900   1.000
    H287    H    0.64570   0.01890   0.73275   1.000
    N288    N    0.25067   0.52311   0.41021   1.000
    N289    N    0.24871   0.45162   0.61147   1.000
    N290    N    0.69430   0.45189   0.41094   1.000
    N291    N    0.69361   0.52447   0.61025   1.000
    N292    N    0.87266   0.76430   0.53864   1.000
    N293    N    0.06942   0.76905   0.48119   1.000
    N294    N    0.86891   0.20594   0.48127   1.000
    N295    N    0.06556   0.20643   0.53934   1.000
    N296    N    0.24853   0.02314   0.91044   1.000
    N297    N    0.25078   0.94810   0.11416   1.000
    N298    N    0.69078   0.95629   0.91420   1.000
    N299    N    0.69414   0.01891   0.10892   1.000
    N300    N    0.87397   0.26870   0.04638   1.000
    N301    N    0.07129   0.26960   0.98508   1.000
    N302    N    0.07262   0.71059   0.03926   1.000
    N303    N    0.74895   0.52489   0.90940   1.000
    N304    N    0.74877   0.44790   0.11356   1.000
    N305    N    0.19310   0.45189   0.91210   1.000
    N306    N    0.19351   0.52285   0.10969   1.000
    N307    N    0.37349   0.76969   0.04287   1.000
    N308    N    0.57307   0.76927   0.98142   1.000
    N309    N    0.37185   0.20689   0.97670   1.000
    N310    N    0.57287   0.20983   0.03970   1.000
    N311    N    0.75062   0.02243   0.41065   1.000
    N312    N    0.74858   0.95016   0.61380   1.000
    N313    N    0.19206   0.95227   0.41087   1.000
    N314    N    0.19152   0.02331   0.61036   1.000
    N315    N    0.37028   0.26460   0.54030   1.000
    N316    N    0.57125   0.27239   0.47717   1.000
    N317    N    0.37029   0.70516   0.47968   1.000
    N318    N    0.56969   0.70415   0.54410   1.000
    H319    H    0.19229   0.50962   0.33793   1.000
    H320    H    0.19144   0.46617   0.68475   1.000
    H321    H    0.75380   0.46834   0.33962   1.000
    H322    H    0.75391   0.50794   0.68143   1.000
    H323    H    0.79916   0.70888   0.53130   1.000
    H324    H    0.14163   0.70913   0.49064   1.000
    H325    H    0.79707   0.26482   0.49141   1.000
    H326    H    0.13852   0.26668   0.53030   1.000
    H327    H    0.18979   0.00657   0.83827   1.000
    H328    H    0.19117   0.96545   0.18499   1.000
    H329    H    0.75184   0.96817   0.84222   1.000
    H330    H    0.75155   0.00659   0.18285   1.000
    H331    H    0.80272   0.20863   0.03173   1.000
    H332    H    0.14315   0.21133   0.99393   1.000
    H333    H    0.80162   0.76537   0.98973   1.000
    H334    H    0.14595   0.76708   0.03158   1.000
    H335    H    0.69283   0.50994   0.83543   1.000
    H336    H    0.69194   0.46609   0.18559   1.000
    H337    H    0.25186   0.46626   0.83960   1.000
    H338    H    0.25174   0.50931   0.18374   1.000
    H339    H    0.30272   0.71114   0.02675   1.000
    H340    H    0.64502   0.71165   0.99279   1.000
    H341    H    0.30023   0.26692   0.99135   1.000
    H342    H    0.64616   0.26619   0.03033   1.000
    H343    H    0.69143   0.01023   0.33723   1.000
    H344    H    0.69283   0.96375   0.68744   1.000
    H345    H    0.25085   0.96763   0.33903   1.000
    H346    H    0.25112   0.00718   0.68264   1.000
    H347    H    0.29615   0.20865   0.53097   1.000
    H348    H    0.64294   0.21081   0.48872   1.000
    H349    H    0.29797   0.76339   0.48953   1.000
    H350    H    0.64150   0.76452   0.53296   1.000
    H351    H    0.89873   0.55855   0.93700   1.000
    H352    H    0.04251   0.41359   0.93538   1.000
    H353    H    0.04195   0.56360   0.08741   1.000
    H354    H    0.89938   0.41395   0.08538   1.000
    H355    H    0.40263   0.41163   0.58841   1.000
    H356    H    0.40126   0.55812   0.43360   1.000
    H357    H    0.54575   0.55927   0.58350   1.000
    H358    H    0.54678   0.41328   0.43736   1.000
    H359    H    0.04487   0.91671   0.43659   1.000
    H360    H    0.90108   0.91540   0.58609   1.000
    H361    H    0.04166   0.06258   0.58472   1.000
    H362    H    0.89887   0.06284   0.43234   1.000
    H363    H    0.39805   0.91589   0.08276   1.000
    H364    H    0.39753   0.06300   0.93840   1.000
    H365    H    0.54094   0.06267   0.08578   1.000
    H366    H    0.54104   0.91427   0.93530   1.000
    O367    O    0.33926   0.41400   0.51067   1.000
    O368    O    0.60282   0.55880   0.50997   1.000
    O369    O    0.60507   0.41507   0.51075   1.000
    O370    O    0.33853   0.55787   0.51119   1.000
    O371    O    0.97293   0.84392   0.44710   1.000
    O372    O    0.96881   0.13486   0.57314   1.000
    O373    O    0.96870   0.11866   0.44020   1.000
    O374    O    0.97303   0.86008   0.58088   1.000
    O375    O    0.89838   0.48602   0.88103   1.000
    O376    O    0.04507   0.48563   0.14249   1.000
    O377    O    0.89821   0.48560   0.14068   1.000
    O378    O    0.04468   0.48950   0.88059   1.000
    O379    O    0.33999   0.91860   0.01063   1.000
    O380    O    0.60474   0.06089   0.01048   1.000
    O381    O    0.60587   0.91779   0.01092   1.000
    O382    O    0.33964   0.06027   0.01037   1.000
    O383    O    0.97317   0.35635   0.94438   1.000
    O384    O    0.96942   0.61785   0.08058   1.000
    O385    O    0.97224   0.63112   0.94405   1.000
    O386    O    0.97291   0.34351   0.07741   1.000
    O387    O    0.89734   0.98200   0.38073   1.000
    O388    O    0.04377   0.98984   0.64069   1.000
    O389    O    0.89725   0.99366   0.64021   1.000
    O390    O    0.04397   0.98937   0.38047   1.000
    O391    O    0.84046   0.41488   0.01066   1.000
    O392    O    0.10605   0.56180   0.01015   1.000
    O393    O    0.10619   0.41726   0.01077   1.000
    O394    O    0.84002   0.55890   0.01055   1.000
    O395    O    0.47241   0.85670   0.94416   1.000
    O396    O    0.47226   0.11943   0.07700   1.000
    O397    O    0.47279   0.12703   0.93947   1.000
    O398    O    0.47306   0.85197   0.08128   1.000
    O399    O    0.39844   0.48161   0.38087   1.000
    O400    O    0.54620   0.48937   0.64309   1.000
    O401    O    0.39830   0.48923   0.64169   1.000
    O402    O    0.54584   0.48522   0.37796   1.000
    O403    O    0.83886   0.91479   0.51064   1.000
    O404    O    0.10154   0.06072   0.51038   1.000
    O405    O    0.10293   0.91580   0.51344   1.000
    O406    O    0.83544   0.05998   0.51071   1.000
    O407    O    0.47291   0.34331   0.44740   1.000
    O408    O    0.47127   0.63143   0.57343   1.000
    O409    O    0.46953   0.61516   0.44002   1.000
    O410    O    0.47303   0.35610   0.58074   1.000
    O411    O    0.39771   0.99368   0.87767   1.000
    O412    O    0.54416   0.98555   0.14076   1.000
    O413    O    0.39819   0.98168   0.14378   1.000
    O414    O    0.54389   0.98983   0.87849   1.000
    O415    O    0.96806   0.41942   0.88077   1.000
    O416    O    0.97288   0.55630   0.87288   1.000
    O417    O    0.97653   0.41829   0.14799   1.000
    O418    O    0.96858   0.55314   0.14345   1.000
    O419    O    0.33965   0.48107   0.44028   1.000
    O420    O    0.33966   0.48941   0.58173   1.000
    O421    O    0.60293   0.48973   0.43928   1.000
    O422    O    0.60281   0.48197   0.58173   1.000
    O423    O    0.89867   0.85801   0.49842   1.000
    O424    O    0.04407   0.85667   0.51510   1.000
    O425    O    0.89451   0.11790   0.52274   1.000
    O426    O    0.04116   0.11877   0.50551   1.000
    O427    O    0.96937   0.91856   0.37313   1.000
    O428    O    0.97326   0.05515   0.37748   1.000
    O429    O    0.97303   0.92337   0.64357   1.000
    O430    O    0.96877   0.06044   0.64748   1.000
    O431    O    0.34049   0.98569   0.93888   1.000
    O432    O    0.34087   0.99348   0.08342   1.000
    O433    O    0.60214   0.99379   0.93907   1.000
    O434    O    0.60299   0.98532   0.08135   1.000
    O435    O    0.90065   0.35651   0.00642   1.000
    O436    O    0.04727   0.35998   0.02620   1.000
    O437    O    0.89926   0.61803   0.01468   1.000
    O438    O    0.04603   0.61876   0.99786   1.000
    O439    O    0.46944   0.41476   0.37331   1.000
    O440    O    0.47668   0.55187   0.37752   1.000
    O441    O    0.47710   0.41925   0.64353   1.000
    O442    O    0.46908   0.55653   0.64778   1.000
    O443    O    0.83970   0.48529   0.94069   1.000
    O444    O    0.83975   0.48970   0.08091   1.000
    O445    O    0.10398   0.49351   0.93962   1.000
    O446    O    0.10290   0.48380   0.08187   1.000
    O447    O    0.39966   0.86005   0.00660   1.000
    O448    O    0.54672   0.85988   0.02269   1.000
    O449    O    0.39888   0.11890   0.01454   1.000
    O450    O    0.54553   0.11892   0.99852   1.000
    O451    O    0.46503   0.92035   0.88114   1.000
    O452    O    0.47234   0.05597   0.86476   1.000
    O453    O    0.47092   0.92244   0.15647   1.000
    O454    O    0.46519   0.05608   0.14006   1.000
    O455    O    0.83766   0.98172   0.43957   1.000
    O456    O    0.83797   0.99372   0.58122   1.000
    O457    O    0.10256   0.99330   0.44005   1.000
    O458    O    0.10245   0.98555   0.58122   1.000
    O459    O    0.39788   0.35609   0.49842   1.000
    O460    O    0.54488   0.35688   0.51838   1.000
    O461    O    0.39741   0.61546   0.52252   1.000
    O462    O    0.54380   0.61810   0.50540   1.000
    O463    O    0.91845   0.93901   0.56111   1.000
    O464    O    0.01918   0.04364   0.56406   1.000
    O465    O    0.02206   0.93520   0.45728   1.000
    O466    O    0.91570   0.03941   0.45854   1.000
    O467    O    0.02537   0.43689   0.96061   1.000
    O468    O    0.02555   0.54000   0.06213   1.000
    O469    O    0.92247   0.54025   0.95715   1.000
    O470    O    0.92269   0.43207   0.06471   1.000
    O471    O    0.41879   0.53575   0.45954   1.000
    O472    O    0.52235   0.54025   0.56391   1.000
    O473    O    0.41945   0.43528   0.56299   1.000
    O474    O    0.52302   0.43163   0.45710   1.000
    O475    O    0.42208   0.04350   0.95630   1.000
    O476    O    0.52338   0.03959   0.06018   1.000
    O477    O    0.42226   0.93528   0.06438   1.000
    O478    O    0.52345   0.93790   0.96054   1.000
    O479    O    0.00973   0.02638   0.47226   1.000
    O480    O    0.93255   0.95058   0.47256   1.000
    O481    O    0.93089   0.02764   0.54842   1.000
    O482    O    0.01031   0.95243   0.54856   1.000
    O483    O    0.93289   0.52377   0.04833   1.000
    O484    O    0.93252   0.44870   0.97272   1.000
    O485    O    0.01054   0.45119   0.04892   1.000
    O486    O    0.01057   0.52700   0.97213   1.000
    O487    O    0.51159   0.44929   0.54897   1.000
    O488    O    0.43446   0.44734   0.47245   1.000
    O489    O    0.51078   0.52270   0.47245   1.000
    O490    O    0.43446   0.52389   0.54871   1.000
    O491    O    0.51092   0.94888   0.05154   1.000
    O492    O    0.43253   0.95172   0.97309   1.000
    O493    O    0.51022   0.02784   0.96936   1.000
    O494    O    0.43298   0.02676   0.04785   1.000
    Zr495   Zr   0.97290   0.48935   0.10257   1.000
    Zr496   Zr   0.97284   0.48542   0.91900   1.000
    Zr497   Zr   0.56452   0.48596   0.51038   1.000
    Zr498   Zr   0.38115   0.48545   0.51075   1.000
    Zr499   Zr   0.96854   0.07805   0.50625   1.000
    Zr500   Zr   0.97224   0.89846   0.51458   1.000
    Zr501   Zr   0.96924   0.98912   0.60225   1.000
    Zr502   Zr   0.96927   0.98958   0.41877   1.000
    Zr503   Zr   0.56110   0.98934   0.01040   1.000
    Zr504   Zr   0.38084   0.98953   0.01055   1.000
    Zr505   Zr   0.97276   0.57749   0.01432   1.000
    Zr506   Zr   0.97346   0.39762   0.00970   1.000
    Zr507   Zr   0.47237   0.48536   0.60291   1.000
    Zr508   Zr   0.47237   0.48579   0.41840   1.000
    Zr509   Zr   0.06408   0.48943   0.01059   1.000
    Zr510   Zr   0.88047   0.48577   0.01052   1.000
    Zr511   Zr   0.47259   0.08098   0.01085   1.000
    Zr512   Zr   0.47280   0.89782   0.00996   1.000
    Zr513   Zr   0.47225   0.99007   0.10183   1.000
    Zr514   Zr   0.47200   0.98592   0.91878   1.000
    Zr515   Zr   0.06356   0.98931   0.51041   1.000
    Zr516   Zr   0.87805   0.98895   0.51023   1.000
    Zr517   Zr   0.47026   0.57660   0.50628   1.000
    Zr518   Zr   0.47219   0.39682   0.51492   1.000
    H519    H    0.00443   0.32576   0.07287   1.000
    H520    H    0.00351   0.64894   0.94980   1.000
    H521    H    0.50170   0.05863   0.84188   1.000
    H522    H    0.50453   0.14448   0.93896   1.000
    H523    H    0.47252   0.10521   0.91010   1.000
    H524    H    0.49953   0.91783   0.18001   1.000
    H525    H    0.50525   0.83518   0.08191   1.000
    H526    H    0.47196   0.87319   0.11102   1.000
    H527    H    0.94089   0.82717   0.45230   1.000
    H528    H    0.94199   0.91416   0.34896   1.000
    H529    H    0.96903   0.88925   0.39512   1.000
    H530    H    0.93724   0.15223   0.56757   1.000
    H531    H    0.94199   0.06417   0.67242   1.000
    H532    H    0.96637   0.08931   0.62498   1.000
    H533    H    0.44121   0.41087   0.34988   1.000
    H534    H    0.44159   0.32536   0.45271   1.000
    H535    H    0.46850   0.38604   0.39604   1.000
    H536    H    0.44149   0.56067   0.67187   1.000
    H537    H    0.43966   0.64898   0.56841   1.000
    H538    H    0.46784   0.58537   0.62527   1.000
    H539    H    0.97650   0.38884   0.12663   1.000
    H540    H    0.97498   0.58527   0.89498   1.000
    H541    H    0.00399   0.41375   0.17212   1.000
    H542    H    0.99994   0.55982   0.84830   1.000
    S543    S    0.99112   0.36844   0.89125   1.000
    S544    S    0.98872   0.60573   0.13341   1.000
    O545    O    0.04550   0.37678   0.89380   1.000
    O546    O    0.97365   0.33232   0.85701   1.000
    O547    O    0.96906   0.63968   0.16854   1.000
    O548    O    0.04344   0.60128   0.13054   1.000
    H549    H    0.94502   0.31904   0.07988   1.000
    H550    H    0.94430   0.65530   0.94124   1.000
    S551    S    0.45479   0.36777   0.63379   1.000
    S552    S    0.45201   0.60236   0.38678   1.000
    O553    O    0.46862   0.63889   0.35221   1.000
    O554    O    0.39779   0.59369   0.38965   1.000
    O555    O    0.47272   0.33185   0.66844   1.000
    O556    O    0.40025   0.37398   0.63092   1.000
    H557    H    0.50104   0.31944   0.44345   1.000
    H558    H    0.49890   0.65586   0.57697   1.000
    S559    S    0.95059   0.10630   0.38718   1.000
    S560    S    0.95194   0.87175   0.63302   1.000
    O561    O    0.89614   0.09814   0.38980   1.000
    O562    O    0.96812   0.14250   0.35269   1.000
    O563    O    0.89751   0.87743   0.62723   1.000
    O564    O    0.96869   0.83609   0.66848   1.000
    H565    H    0.00009   0.81879   0.44492   1.000
    H566    H    0.99644   0.15948   0.57568   1.000
    S567    S    0.48965   0.86967   0.89132   1.000
    S568    S    0.48962   0.10676   0.13002   1.000
    O569    O    0.47285   0.83458   0.85609   1.000
    O570    O    0.54396   0.87849   0.89376   1.000
    O571    O    0.54394   0.09779   0.12736   1.000
    O572    O    0.47311   0.14295   0.16441   1.000
    H573    H    0.44050   0.92768   0.17577   1.000
    H574    H    0.44259   0.05246   0.84410   1.000
    O575    O    0.27675   0.07700   0.09327   1.000
    O576    O    0.21531   0.06863   0.03999   1.000
    O577    O    0.39423   0.24194   0.99419   1.000
    O578    O    0.38183   0.18513   0.93837   1.000
    O579    O    0.05140   0.23523   0.00736   1.000
    O580    O    0.05656   0.28936   0.94726   1.000
    O581    O    0.16518   0.40169   0.09364   1.000
    O582    O    0.23506   0.40227   0.05199   1.000
    O583    O    0.21152   0.00666   0.93099   1.000
    O584    O    0.27257   0.05983   0.92258   1.000
    O585    O    0.39445   0.97313   0.76082   1.000
    O586    O    0.38533   0.90996   0.81097   1.000
    O587    O    0.16832   0.06063   0.59834   1.000
    O588    O    0.22776   0.00617   0.58933   1.000
    O589    O    0.05653   0.91005   0.70629   1.000
    O590    O    0.04709   0.96906   0.76071   1.000
    O591    O    0.72529   0.97654   0.93553   1.000
    O592    O    0.66900   0.91864   0.92682   1.000
    O593    O    0.55160   0.01007   0.75581   1.000
    O594    O    0.55641   0.06462   0.81502   1.000
    O595    O    0.77659   0.91833   0.59793   1.000
    O596    O    0.70701   0.96052   0.59808   1.000
    O597    O    0.88524   0.06748   0.70622   1.000
    O598    O    0.89797   0.00607   0.75776   1.000
    O599    O    0.55617   0.18587   0.07412   1.000
    O600    O    0.55592   0.24821   0.02221   1.000
    O601    O    0.73065   0.06898   0.98537   1.000
    O602    O    0.66931   0.07367   0.93165   1.000
    O603    O    0.88905   0.29414   0.08158   1.000
    O604    O    0.89402   0.23151   0.03114   1.000
    O605    O    0.71884   0.41034   0.99401   1.000
    O606    O    0.77297   0.40198   0.93394   1.000
    O607    O    0.27795   0.91394   0.10161   1.000
    O608    O    0.21147   0.96031   0.09464   1.000
    O609    O    0.38522   0.06491   0.20580   1.000
    O610    O    0.39395   0.00932   0.26432   1.000
    O611    O    0.04762   0.01011   0.26034   1.000
    O612    O    0.05661   0.06913   0.31472   1.000
    O613    O    0.22908   0.96853   0.43138   1.000
    O614    O    0.16854   0.91518   0.42282   1.000
    O615    O    0.21933   0.91446   0.99401   1.000
    O616    O    0.26957   0.90242   0.93125   1.000
    O617    O    0.38525   0.78980   0.08172   1.000
    O618    O    0.39476   0.73532   0.02284   1.000
    O619    O    0.23482   0.57698   0.96895   1.000
    O620    O    0.16483   0.57752   0.92726   1.000
    O621    O    0.05270   0.68532   0.07095   1.000
    O622    O    0.05785   0.75075   0.02313   1.000
    O623    O    0.55589   0.73090   0.99854   1.000
    O624    O    0.55656   0.79364   0.94711   1.000
    O625    O    0.67230   0.90185   0.09394   1.000
    O626    O    0.72804   0.91049   0.03535   1.000
    N627    N    0.87268   0.70464   0.97659   1.000
    O628    O    0.89443   0.73980   0.99397   1.000
    O629    O    0.88584   0.68093   0.93951   1.000
    O630    O    0.77243   0.57282   0.08980   1.000
    O631    O    0.71931   0.56469   0.02826   1.000
    O632    O    0.67304   0.05628   0.09423   1.000
    O633    O    0.73008   0.99857   0.08991   1.000
    O634    O    0.55596   0.91045   0.20551   1.000
    O635    O    0.54725   0.96877   0.26045   1.000
    O636    O    0.71491   0.00343   0.43153   1.000
    O637    O    0.77269   0.06004   0.42253   1.000
    O638    O    0.89524   0.96876   0.26104   1.000
    O639    O    0.88561   0.90872   0.31483   1.000
    O640    O    0.56452   0.40581   0.70633   1.000
    O641    O    0.54845   0.46462   0.75972   1.000
    O642    O    0.66826   0.56035   0.59804   1.000
    O643    O    0.73136   0.51015   0.58967   1.000
    O644    O    0.89859   0.46924   0.76474   1.000
    O645    O    0.88477   0.40670   0.81473   1.000
    O646    O    0.71008   0.51015   0.92752   1.000
    O647    O    0.77332   0.56065   0.92283   1.000
    O648    O    0.72824   0.56819   0.48968   1.000
    O649    O    0.67178   0.57339   0.43120   1.000
    O650    O    0.55618   0.68039   0.58125   1.000
    O651    O    0.54790   0.73948   0.52661   1.000
    O652    O    0.71523   0.90643   0.48075   1.000
    O653    O    0.77659   0.89766   0.42766   1.000
    O654    O    0.89407   0.78915   0.56937   1.000
    O655    O    0.88602   0.72404   0.52218   1.000
    O656    O    0.27912   0.57721   0.59808   1.000
    O657    O    0.21251   0.56906   0.55200   1.000
    O658    O    0.38960   0.74204   0.49802   1.000
    O659    O    0.38501   0.68196   0.44400   1.000
    O660    O    0.16795   0.89765   0.59376   1.000
    O661    O    0.22748   0.90645   0.53905   1.000
    O662    O    0.04750   0.73567   0.50204   1.000
    O663    O    0.05591   0.79032   0.44260   1.000
    O664    O    0.39780   0.46487   0.26484   1.000
    O665    O    0.38527   0.40593   0.31900   1.000
    O666    O    0.21054   0.51044   0.42751   1.000
    O667    O    0.27704   0.55675   0.42474   1.000
    O668    O    0.06013   0.40768   0.20603   1.000
    O669    O    0.04398   0.46885   0.25628   1.000
    O670    O    0.16880   0.55787   0.09456   1.000
    O671    O    0.23116   0.50625   0.09054   1.000
    O672    O    0.73092   0.46873   0.43168   1.000
    O673    O    0.67141   0.41446   0.42286   1.000
    O674    O    0.54826   0.51057   0.26104   1.000
    O675    O    0.56425   0.56933   0.31450   1.000
    O676    O    0.77586   0.41464   0.09840   1.000
    O677    O    0.70783   0.45958   0.09740   1.000
    O678    O    0.88160   0.56874   0.20647   1.000
    O679    O    0.89844   0.50638   0.25624   1.000
    O680    O    0.54822   0.23717   0.49341   1.000
    O681    O    0.55974   0.29761   0.44009   1.000
    O682    O    0.66413   0.39746   0.59749   1.000
    O683    O    0.72740   0.40623   0.54713   1.000
    O684    O    0.88677   0.24374   0.49905   1.000
    O685    O    0.88545   0.18170   0.44729   1.000
    O686    O    0.77352   0.07727   0.59760   1.000
    O687    O    0.71042   0.06885   0.54705   1.000
    O688    O    0.21111   0.40642   0.48521   1.000
    O689    O    0.27251   0.40187   0.43183   1.000
    O690    O    0.38925   0.28951   0.57266   1.000
    O691    O    0.38564   0.22481   0.52462   1.000
    O692    O    0.22269   0.06500   0.49381   1.000
    O693    O    0.16914   0.07365   0.43286   1.000
    O694    O    0.05209   0.18490   0.57782   1.000
    O695    O    0.04325   0.23959   0.51853   1.000
    O696    O    0.27232   0.41538   0.59789   1.000
    O697    O    0.21061   0.46838   0.59317   1.000
    O698    O    0.38536   0.56466   0.70290   1.000
    O699    O    0.39739   0.50674   0.75905   1.000
    O700    O    0.23068   0.46871   0.93125   1.000
    O701    O    0.16899   0.41621   0.92645   1.000
    O702    O    0.05139   0.51013   0.75640   1.000
    O703    O    0.05650   0.56453   0.81569   1.000
