# CIF file generated by openbabel 3.0.0, see http://openbabel.sf.net
data_I
_chemical_name_common 'D:\! BYU CALCULATION\Acidic MOF Patent\Periodic_54_00 (28.483)\UiO67_based_cell-pos-final.pdb'
_cell_length_a 27.716
_cell_length_b 29.051
_cell_length_c 28.683
_cell_angle_alpha 89.39
_cell_angle_beta 90.18
_cell_angle_gamma 89.79
loop_
    _atom_site_label
    _atom_site_type_symbol
    _atom_site_fract_x
    _atom_site_fract_y
    _atom_site_fract_z
    _atom_site_occupancy
    C0      C    0.26974   0.82586   0.96488   1.000
    C1      C    0.67625   0.12441   0.96792   1.000
    C2      C    0.67449   0.82529   0.01175   1.000
    C3      C    0.27461   0.12286   0.01276   1.000
    C4      C    0.82818   0.95141   0.29022   1.000
    C5      C    0.12125   0.95275   0.68665   1.000
    C6      C    0.82753   0.00025   0.68599   1.000
    C7      C    0.12297   0.99400   0.28928   1.000
    C8      C    0.27383   0.32581   0.46766   1.000
    C9      C    0.67833   0.62384   0.46734   1.000
    C10     C    0.67533   0.32548   0.51215   1.000
    C11     C    0.27564   0.62233   0.50953   1.000
    C12     C    0.82886   0.45320   0.78574   1.000
    C13     C    0.12141   0.44829   0.18538   1.000
    C14     C    0.82957   0.49374   0.18835   1.000
    C15     C    0.12196   0.49626   0.78877   1.000
    C16     C    0.77314   0.82555   0.46776   1.000
    C17     C    0.17912   0.12380   0.46319   1.000
    C18     C    0.17753   0.82353   0.51295   1.000
    C19     C    0.77417   0.12312   0.51114   1.000
    C20     C    0.32974   0.95558   0.78741   1.000
    C21     C    0.61982   0.94778   0.18674   1.000
    C22     C    0.33100   0.99521   0.18793   1.000
    C23     C    0.62074   0.99832   0.79059   1.000
    C24     C    0.77040   0.32613   0.96722   1.000
    C25     C    0.17559   0.62529   0.96760   1.000
    C26     C    0.17530   0.32480   0.01370   1.000
    C27     C    0.77344   0.62319   0.01248   1.000
    C28     C    0.33027   0.45097   0.28740   1.000
    C29     C    0.62083   0.45065   0.68738   1.000
    C30     C    0.33179   0.49901   0.68836   1.000
    C31     C    0.62233   0.49357   0.28907   1.000
    C32     C    0.23655   0.78985   0.95934   1.000
    C33     C    0.70946   0.16069   0.96091   1.000
    C34     C    0.70911   0.78915   0.01796   1.000
    C35     C    0.24021   0.15943   0.01764   1.000
    C36     C    0.79140   0.94626   0.25627   1.000
    C37     C    0.15867   0.95169   0.72190   1.000
    C38     C    0.79239   0.00104   0.72246   1.000
    C39     C    0.15991   0.99886   0.25564   1.000
    C40     C    0.24105   0.28920   0.46246   1.000
    C41     C    0.71188   0.66010   0.46288   1.000
    C42     C    0.70966   0.28877   0.51713   1.000
    C43     C    0.24171   0.65889   0.51546   1.000
    C44     C    0.79243   0.44754   0.75150   1.000
    C45     C    0.15746   0.44775   0.22122   1.000
    C46     C    0.79346   0.49418   0.22464   1.000
    C47     C    0.15939   0.50213   0.75516   1.000
    C48     C    0.73988   0.78947   0.46239   1.000
    C49     C    0.21249   0.16008   0.45950   1.000
    C50     C    0.21243   0.78721   0.51696   1.000
    C51     C    0.73999   0.15990   0.51644   1.000
    C52     C    0.29292   0.95064   0.75258   1.000
    C53     C    0.65609   0.94782   0.22279   1.000
    C54     C    0.29415   0.99596   0.22363   1.000
    C55     C    0.65770   0.00365   0.75562   1.000
    C56     C    0.73707   0.29012   0.96119   1.000
    C57     C    0.20869   0.66116   0.96070   1.000
    C58     C    0.20930   0.28768   0.01869   1.000
    C59     C    0.73919   0.65979   0.01796   1.000
    C60     C    0.29295   0.44472   0.25369   1.000
    C61     C    0.65811   0.44939   0.72228   1.000
    C62     C    0.29524   0.50008   0.72343   1.000
    C63     C    0.65926   0.49775   0.25477   1.000
    C64     C    0.35617   0.85911   0.97838   1.000
    C65     C    0.58785   0.08522   0.98580   1.000
    C66     C    0.58934   0.85924   0.98263   1.000
    C67     C    0.35886   0.09076   0.98601   1.000
    C68     C    0.85919   0.97238   0.37484   1.000
    C69     C    0.08886   0.96870   0.60011   1.000
    C70     C    0.85802   0.97307   0.60336   1.000
    C71     C    0.08965   0.97562   0.37464   1.000
    C72     C    0.36170   0.36282   0.48331   1.000
    C73     C    0.59170   0.58956   0.47993   1.000
    C74     C    0.58943   0.35993   0.48652   1.000
    C75     C    0.36026   0.58749   0.48363   1.000
    C76     C    0.85871   0.47327   0.87088   1.000
    C77     C    0.08980   0.47351   0.10188   1.000
    C78     C    0.86193   0.47867   0.10230   1.000
    C79     C    0.08969   0.47832   0.87517   1.000
    C80     C    0.85993   0.86355   0.48481   1.000
    C81     C    0.09270   0.08996   0.47603   1.000
    C82     C    0.09235   0.85843   0.48760   1.000
    C83     C    0.86005   0.08902   0.48345   1.000
    C84     C    0.36012   0.97213   0.87325   1.000
    C85     C    0.58911   0.97189   0.10376   1.000
    C86     C    0.36282   0.97879   0.10272   1.000
    C87     C    0.58857   0.97703   0.87528   1.000
    C88     C    0.85726   0.35979   0.97757   1.000
    C89     C    0.08826   0.58705   0.98357   1.000
    C90     C    0.08999   0.36041   0.98371   1.000
    C91     C    0.85769   0.59144   0.98507   1.000
    C92     C    0.36250   0.47315   0.37136   1.000
    C93     C    0.58819   0.46771   0.60057   1.000
    C94     C    0.36288   0.47842   0.60660   1.000
    C95     C    0.58959   0.47680   0.37464   1.000
    C96     C    0.31662   0.81933   0.98441   1.000
    C97     C    0.62772   0.13022   0.98486   1.000
    C98     C    0.62888   0.81830   0.98992   1.000
    C99     C    0.32063   0.13065   0.99302   1.000
    C100    C    0.81884   0.96980   0.33562   1.000
    C101    C    0.13078   0.96773   0.63990   1.000
    C102    C    0.81737   0.98214   0.64101   1.000
    C103    C    0.13134   0.97689   0.33548   1.000
    C104    C    0.32197   0.32025   0.48558   1.000
    C105    C    0.63085   0.63040   0.48516   1.000
    C106    C    0.62853   0.31918   0.49238   1.000
    C107    C    0.32188   0.62887   0.48994   1.000
    C108    C    0.81901   0.47128   0.83107   1.000
    C109    C    0.13104   0.46575   0.13967   1.000
    C110    C    0.82003   0.47832   0.14211   1.000
    C111    C    0.13134   0.47946   0.83525   1.000
    C112    C    0.82077   0.81968   0.48628   1.000
    C113    C    0.13262   0.12975   0.48289   1.000
    C114    C    0.13109   0.81744   0.49297   1.000
    C115    C    0.82059   0.13004   0.49116   1.000
    C116    C    0.31998   0.97175   0.83351   1.000
    C117    C    0.63079   0.96441   0.14100   1.000
    C118    C    0.32211   0.97882   0.14211   1.000
    C119    C    0.63010   0.98053   0.83664   1.000
    C120    C    0.81800   0.31916   0.98493   1.000
    C121    C    0.12749   0.63107   0.98479   1.000
    C122    C    0.12961   0.31944   0.99148   1.000
    C123    C    0.81950   0.63136   0.99281   1.000
    C124    C    0.32183   0.47015   0.33255   1.000
    C125    C    0.63025   0.46626   0.64073   1.000
    C126    C    0.32175   0.48237   0.64331   1.000
    C127    C    0.63073   0.47708   0.33552   1.000
    C128    C    0.24336   0.74471   0.97953   1.000
    C129    C    0.70166   0.20587   0.97890   1.000
    C130    C    0.70341   0.74446   0.99734   1.000
    C131    C    0.24611   0.20393   0.99654   1.000
    C132    C    0.74450   0.96715   0.26007   1.000
    C133    C    0.20613   0.96983   0.71510   1.000
    C134    C    0.74456   0.98230   0.71796   1.000
    C135    C    0.20589   0.97685   0.26062   1.000
    C136    C    0.24853   0.24378   0.48052   1.000
    C137    C    0.70488   0.70503   0.48220   1.000
    C138    C    0.70344   0.24483   0.49572   1.000
    C139    C    0.24764   0.70348   0.49468   1.000
    C140    C    0.74546   0.46835   0.75565   1.000
    C141    C    0.20525   0.46639   0.21596   1.000
    C142    C    0.74578   0.47624   0.21868   1.000
    C143    C    0.20613   0.48125   0.75983   1.000
    C144    C    0.74698   0.74413   0.48188   1.000
    C145    C    0.20636   0.20451   0.48004   1.000
    C146    C    0.20582   0.74351   0.49548   1.000
    C147    C    0.74556   0.20469   0.49559   1.000
    C148    C    0.24631   0.97104   0.75732   1.000
    C149    C    0.70399   0.96564   0.21722   1.000
    C150    C    0.24706   0.97682   0.21777   1.000
    C151    C    0.70443   0.98241   0.75990   1.000
    C152    C    0.74319   0.24479   0.98040   1.000
    C153    C    0.20147   0.70642   0.97831   1.000
    C154    C    0.20406   0.24393   0.99685   1.000
    C155    C    0.74494   0.70463   0.99734   1.000
    C156    C    0.24663   0.46688   0.25790   1.000
    C157    C    0.70532   0.46781   0.71538   1.000
    C158    C    0.24756   0.48210   0.71814   1.000
    C159    C    0.70543   0.47635   0.26055   1.000
    C160    C    0.27224   0.98868   0.84041   1.000
    C161    C    0.27485   0.96135   0.13430   1.000
    C162    C    0.67818   0.96404   0.84316   1.000
    C163    C    0.67855   0.98077   0.13340   1.000
    C164    C    0.82631   0.27398   0.00188   1.000
    C165    C    0.12015   0.27304   0.97806   1.000
    C166    C    0.82880   0.67751   0.97757   1.000
    C167    C    0.11729   0.67730   0.99755   1.000
    C168    C    0.27409   0.48697   0.34022   1.000
    C169    C    0.27459   0.46562   0.63533   1.000
    C170    C    0.67845   0.46033   0.34374   1.000
    C171    C    0.67790   0.48330   0.63365   1.000
    C172    C    0.83146   0.77355   0.49994   1.000
    C173    C    0.12083   0.77160   0.47888   1.000
    C174    C    0.83022   0.17709   0.47857   1.000
    C175    C    0.12476   0.17325   0.50340   1.000
    C176    C    0.77099   0.98652   0.34252   1.000
    C177    C    0.77022   0.96469   0.63484   1.000
    C178    C    0.17899   0.96000   0.34374   1.000
    C179    C    0.17889   0.98341   0.63139   1.000
    C180    C    0.33201   0.27438   0.50040   1.000
    C181    C    0.61838   0.27316   0.47927   1.000
    C182    C    0.33201   0.67531   0.47669   1.000
    C183    C    0.62139   0.67500   0.50301   1.000
    C184    C    0.77166   0.48866   0.83710   1.000
    C185    C    0.77186   0.46240   0.13420   1.000
    C186    C    0.17930   0.46290   0.84233   1.000
    C187    C    0.17833   0.48241   0.13263   1.000
    C188    C    0.32536   0.77485   0.00286   1.000
    C189    C    0.61928   0.77169   0.97771   1.000
    C190    C    0.33025   0.17639   0.97757   1.000
    C191    C    0.61763   0.17652   0.99773   1.000
    C192    C    0.23956   0.99274   0.80185   1.000
    C193    C    0.23958   0.95900   0.17137   1.000
    C194    C    0.71147   0.96100   0.80516   1.000
    C195    C    0.71301   0.98210   0.17084   1.000
    C196    C    0.78845   0.23968   0.00317   1.000
    C197    C    0.15665   0.23839   0.97691   1.000
    C198    C    0.79179   0.71142   0.97656   1.000
    C199    C    0.15479   0.71236   0.99846   1.000
    C200    C    0.24055   0.48975   0.30222   1.000
    C201    C    0.24012   0.46413   0.67232   1.000
    C202    C    0.71190   0.45573   0.30633   1.000
    C203    C    0.71267   0.48777   0.67030   1.000
    C204    C    0.79393   0.73827   0.50242   1.000
    C205    C    0.15815   0.73776   0.47585   1.000
    C206    C    0.79295   0.21106   0.47585   1.000
    C207    C    0.16161   0.20828   0.50437   1.000
    C208    C    0.73774   0.98933   0.30448   1.000
    C209    C    0.73593   0.96367   0.67253   1.000
    C210    C    0.21193   0.95558   0.30598   1.000
    C211    C    0.21414   0.98678   0.66845   1.000
    C212    C    0.29488   0.23867   0.50214   1.000
    C213    C    0.65567   0.23921   0.47669   1.000
    C214    C    0.29500   0.70958   0.47508   1.000
    C215    C    0.65864   0.71003   0.50399   1.000
    C216    C    0.73855   0.49082   0.79927   1.000
    C217    C    0.73750   0.45962   0.17185   1.000
    C218    C    0.21268   0.45954   0.80485   1.000
    C219    C    0.21355   0.48398   0.16973   1.000
    C220    C    0.28888   0.73930   0.00275   1.000
    C221    C    0.65646   0.73758   0.97743   1.000
    C222    C    0.29310   0.21038   0.97618   1.000
    C223    C    0.65513   0.21168   0.99926   1.000
    C224    C    0.25980   0.87717   0.95366   1.000
    C225    C    0.68759   0.07369   0.95641   1.000
    C226    C    0.68634   0.87427   0.02849   1.000
    C227    C    0.26095   0.07277   0.02601   1.000
    C228    C    0.88155   0.93972   0.27889   1.000
    C229    C    0.07064   0.93417   0.70171   1.000
    C230    C    0.87919   0.01975   0.69467   1.000
    C231    C    0.06984   0.00250   0.27593   1.000
    C232    C    0.26137   0.37656   0.45695   1.000
    C233    C    0.68892   0.57261   0.45514   1.000
    C234    C    0.68976   0.37466   0.52585   1.000
    C235    C    0.26202   0.57309   0.52390   1.000
    C236    C    0.88176   0.44119   0.77559   1.000
    C237    C    0.07021   0.42925   0.19630   1.000
    C238    C    0.88031   0.51264   0.20128   1.000
    C239    C    0.06798   0.50513   0.77668   1.000
    C240    C    0.76255   0.87672   0.45695   1.000
    C241    C    0.18870   0.07281   0.45099   1.000
    C242    C    0.19024   0.87252   0.52864   1.000
    C243    C    0.75860   0.07309   0.52212   1.000
    C244    C    0.38314   0.94679   0.77500   1.000
    C245    C    0.56765   0.92993   0.19884   1.000
    C246    C    0.38172   0.01330   0.20142   1.000
    C247    C    0.56694   0.00864   0.77884   1.000
    C248    C    0.76093   0.37704   0.95446   1.000
    C249    C    0.18675   0.57466   0.95759   1.000
    C250    C    0.18844   0.37418   0.02845   1.000
    C251    C    0.76001   0.57310   0.02577   1.000
    C252    C    0.38375   0.44000   0.27670   1.000
    C253    C    0.56996   0.43349   0.70241   1.000
    C254    C    0.38385   0.51732   0.69837   1.000
    C255    C    0.56961   0.50303   0.27652   1.000
    C256    C    0.19214   0.80471   0.93113   1.000
    C257    C    0.75471   0.14680   0.93361   1.000
    C258    C    0.75405   0.79906   0.04752   1.000
    C259    C    0.19568   0.14883   0.04710   1.000
    C260    C    0.80466   0.91440   0.21551   1.000
    C261    C    0.14689   0.93043   0.76977   1.000
    C262    C    0.80787   0.02165   0.76904   1.000
    C263    C    0.14811   0.03045   0.21397   1.000
    C264    C    0.19548   0.30338   0.43649   1.000
    C265    C    0.75546   0.64574   0.43433   1.000
    C266    C    0.75517   0.29893   0.54607   1.000
    C267    C    0.19848   0.64924   0.54663   1.000
    C268    C    0.80515   0.41689   0.71008   1.000
    C269    C    0.14398   0.42896   0.26924   1.000
    C270    C    0.80714   0.51499   0.27230   1.000
    C271    C    0.14726   0.53361   0.71343   1.000
    C272    C    0.69529   0.80397   0.43481   1.000
    C273    C    0.25709   0.14662   0.43325   1.000
    C274    C    0.25781   0.79626   0.54621   1.000
    C275    C    0.69546   0.14933   0.54621   1.000
    C276    C    0.30525   0.91886   0.71109   1.000
    C277    C    0.64203   0.92866   0.27021   1.000
    C278    C    0.30729   0.01580   0.27143   1.000
    C279    C    0.64506   0.03432   0.71273   1.000
    C280    C    0.69356   0.30484   0.93287   1.000
    C281    C    0.25275   0.64693   0.93253   1.000
    C282    C    0.25442   0.29732   0.04745   1.000
    C283    C    0.69509   0.64918   0.04825   1.000
    C284    C    0.30575   0.41286   0.21254   1.000
    C285    C    0.64565   0.42923   0.77026   1.000
    C286    C    0.30935   0.51976   0.77029   1.000
    C287    C    0.64742   0.52866   0.21226   1.000
    C288    C    0.25995   0.00563   0.89083   1.000
    C289    C    0.26218   0.94131   0.08521   1.000
    C290    C    0.69071   0.94802   0.89424   1.000
    C291    C    0.69200   0.99960   0.08354   1.000
    C292    C    0.87797   0.25752   0.01273   1.000
    C293    C    0.06649   0.26057   0.97227   1.000
    C294    C    0.88336   0.68781   0.96976   1.000
    C295    C    0.06547   0.69506   0.00659   1.000
    C296    C    0.26283   0.50392   0.39172   1.000
    C297    C    0.26336   0.44577   0.58585   1.000
    C298    C    0.69048   0.44553   0.39580   1.000
    C299    C    0.69370   0.49858   0.58474   1.000
    C300    C    0.88394   0.75547   0.50688   1.000
    C301    C    0.06561   0.76096   0.47250   1.000
    C302    C    0.88405   0.19038   0.47195   1.000
    C303    C    0.07207   0.18563   0.51445   1.000
    C304    C    0.75855   0.00347   0.39284   1.000
    C305    C    0.75736   0.94610   0.58540   1.000
    C306    C    0.19101   0.94424   0.39583   1.000
    C307    C    0.19242   0.00280   0.58139   1.000
    C308    C    0.38460   0.25678   0.50842   1.000
    C309    C    0.56378   0.26187   0.47233   1.000
    C310    C    0.38658   0.68669   0.47160   1.000
    C311    C    0.56870   0.68878   0.51494   1.000
    C312    C    0.76018   0.50542   0.88720   1.000
    C313    C    0.75727   0.44375   0.08455   1.000
    C314    C    0.19151   0.44769   0.89362   1.000
    C315    C    0.19195   0.50159   0.08323   1.000
    C316    C    0.37791   0.76455   0.01729   1.000
    C317    C    0.56508   0.75942   0.97255   1.000
    C318    C    0.38453   0.18676   0.96994   1.000
    C319    C    0.56591   0.19449   0.00645   1.000
    C320    C    0.19662   0.02378   0.81189   1.000
    C321    C    0.18957   0.94085   0.15850   1.000
    C322    C    0.75575   0.93084   0.81597   1.000
    C323    C    0.76104   0.00367   0.15850   1.000
    C324    C    0.79727   0.19628   0.03243   1.000
    C325    C    0.14310   0.19390   0.95167   1.000
    C326    C    0.80434   0.75590   0.95006   1.000
    C327    C    0.14605   0.75646   0.02688   1.000
    C328    C    0.19734   0.52097   0.31163   1.000
    C329    C    0.19195   0.44413   0.65932   1.000
    C330    C    0.75507   0.42390   0.31805   1.000
    C331    C    0.75383   0.52301   0.66489   1.000
    C332    C    0.80491   0.69306   0.52965   1.000
    C333    C    0.14330   0.69361   0.45124   1.000
    C334    C    0.80568   0.25557   0.44991   1.000
    C335    C    0.14977   0.25210   0.53115   1.000
    C336    C    0.69430   0.02048   0.31376   1.000
    C337    C    0.68821   0.94048   0.66214   1.000
    C338    C    0.25477   0.92465   0.31794   1.000
    C339    C    0.26274   0.00924   0.65614   1.000
    C340    C    0.30470   0.19366   0.52961   1.000
    C341    C    0.64190   0.19542   0.45064   1.000
    C342    C    0.30821   0.75418   0.44967   1.000
    C343    C    0.64751   0.75467   0.53031   1.000
    C344    C    0.69603   0.52274   0.80812   1.000
    C345    C    0.68884   0.43750   0.16112   1.000
    C346    C    0.25627   0.42944   0.81632   1.000
    C347    C    0.26304   0.50356   0.15728   1.000
    C348    C    0.30057   0.69373   0.02828   1.000
    C349    C    0.64248   0.69351   0.95223   1.000
    C350    C    0.30580   0.25579   0.95188   1.000
    C351    C    0.64621   0.25546   0.02873   1.000
    H352    H    0.90146   0.04497   0.41745   1.000
    H353    H    0.04019   0.90532   0.41487   1.000
    H354    H    0.04400   0.04102   0.55378   1.000
    H355    H    0.90537   0.91453   0.56302   1.000
    H356    H    0.40521   0.90526   0.05673   1.000
    H357    H    0.40565   0.04418   0.91781   1.000
    H358    H    0.54430   0.03328   0.05948   1.000
    H359    H    0.54413   0.90459   0.91590   1.000
    H360    H    0.04529   0.40608   0.91565   1.000
    H361    H    0.90431   0.40537   0.05481   1.000
    H362    H    0.04284   0.53585   0.05931   1.000
    H363    H    0.90569   0.54625   0.91227   1.000
    H364    H    0.40184   0.41277   0.55827   1.000
    H365    H    0.40246   0.54539   0.41839   1.000
    H366    H    0.54388   0.54275   0.55531   1.000
    H367    H    0.54198   0.40528   0.41686   1.000
    O368    O    0.34914   0.89909   0.99386   1.000
    O369    O    0.60019   0.04420   0.99403   1.000
    O370    O    0.60263   0.89836   0.96795   1.000
    O371    O    0.34655   0.05584   0.96432   1.000
    O372    O    0.97237   0.33878   0.92301   1.000
    O373    O    0.97146   0.60672   0.05045   1.000
    O374    O    0.97384   0.59908   0.91970   1.000
    O375    O    0.97422   0.35127   0.04393   1.000
    O376    O    0.90239   0.97513   0.36180   1.000
    O377    O    0.04993   0.98921   0.61099   1.000
    O378    O    0.88380   0.93891   0.61497   1.000
    O379    O    0.04589   0.97474   0.36320   1.000
    O380    O    0.35003   0.40424   0.49206   1.000
    O381    O    0.60095   0.54888   0.49238   1.000
    O382    O    0.60167   0.39669   0.46710   1.000
    O383    O    0.34639   0.54904   0.46741   1.000
    O384    O    0.97255   0.85247   0.42212   1.000
    O385    O    0.97543   0.09615   0.54537   1.000
    O386    O    0.97565   0.11149   0.42240   1.000
    O387    O    0.97687   0.84108   0.54917   1.000
    O388    O    0.90184   0.47850   0.85802   1.000
    O389    O    0.05902   0.50278   0.11419   1.000
    O390    O    0.90044   0.45674   0.11258   1.000
    O391    O    0.04695   0.47419   0.86203   1.000
    O392    O    0.84956   0.90453   0.49625   1.000
    O393    O    0.09836   0.04956   0.49189   1.000
    O394    O    0.10463   0.89475   0.46710   1.000
    O395    O    0.84681   0.04940   0.47076   1.000
    O396    O    0.47632   0.35230   0.42282   1.000
    O397    O    0.47628   0.59705   0.54666   1.000
    O398    O    0.47587   0.60613   0.42000   1.000
    O399    O    0.47532   0.34540   0.55259   1.000
    O400    O    0.40362   0.97621   0.86161   1.000
    O401    O    0.55882   0.00169   0.11711   1.000
    O402    O    0.40133   0.95696   0.11286   1.000
    O403    O    0.54623   0.97046   0.86133   1.000
    O404    O    0.84971   0.40027   0.99082   1.000
    O405    O    0.10000   0.54591   0.99431   1.000
    O406    O    0.10437   0.39959   0.96976   1.000
    O407    O    0.84581   0.55730   0.96195   1.000
    O408    O    0.47194   0.83659   0.92381   1.000
    O409    O    0.47425   0.10669   0.05108   1.000
    O410    O    0.47514   0.09579   0.92367   1.000
    O411    O    0.47470   0.85063   0.04738   1.000
    O412    O    0.40588   0.47986   0.35891   1.000
    O413    O    0.55019   0.48925   0.61141   1.000
    O414    O    0.39317   0.44607   0.61559   1.000
    O415    O    0.54596   0.47687   0.36121   1.000
    O416    O    0.97047   0.91090   0.36184   1.000
    O417    O    0.97524   0.03977   0.35563   1.000
    O418    O    0.98344   0.91035   0.61085   1.000
    O419    O    0.96787   0.03513   0.60329   1.000
    O420    O    0.34920   0.96786   0.91586   1.000
    O421    O    0.35575   0.99884   0.06440   1.000
    O422    O    0.59783   0.97963   0.91889   1.000
    O423    O    0.58679   0.95130   0.06496   1.000
    O424    O    0.89602   0.34955   0.95648   1.000
    O425    O    0.04665   0.35024   0.99173   1.000
    O426    O    0.90070   0.59552   0.00216   1.000
    O427    O    0.04668   0.59701   0.96955   1.000
    O428    O    0.97371   0.41280   0.85683   1.000
    O429    O    0.97947   0.54069   0.86157   1.000
    O430    O    0.98013   0.41073   0.10115   1.000
    O431    O    0.96907   0.53679   0.11053   1.000
    O432    O    0.35259   0.46971   0.41400   1.000
    O433    O    0.36574   0.50437   0.57173   1.000
    O434    O    0.59990   0.47704   0.41749   1.000
    O435    O    0.59311   0.44936   0.56162   1.000
    O436    O    0.90116   0.85292   0.47087   1.000
    O437    O    0.04985   0.85278   0.50413   1.000
    O438    O    0.90376   0.09911   0.48962   1.000
    O439    O    0.05535   0.10170   0.45340   1.000
    O440    O    0.47274   0.91037   0.85746   1.000
    O441    O    0.47885   0.03724   0.86429   1.000
    O442    O    0.48328   0.90934   0.10491   1.000
    O443    O    0.46775   0.03589   0.10924   1.000
    O444    O    0.84901   0.97296   0.41801   1.000
    O445    O    0.86327   0.99700   0.56615   1.000
    O446    O    0.10148   0.97620   0.41752   1.000
    O447    O    0.09541   0.95049   0.56145   1.000
    O448    O    0.40370   0.35214   0.47132   1.000
    O449    O    0.54649   0.35296   0.50092   1.000
    O450    O    0.40335   0.59540   0.49457   1.000
    O451    O    0.55144   0.60012   0.46138   1.000
    O452    O    0.47196   0.41169   0.36344   1.000
    O453    O    0.47475   0.53676   0.34883   1.000
    O454    O    0.47499   0.41162   0.61824   1.000
    O455    O    0.47061   0.53737   0.60499   1.000
    O456    O    0.84765   0.46893   0.91370   1.000
    O457    O    0.85548   0.50017   0.06478   1.000
    O458    O    0.10025   0.48133   0.91868   1.000
    O459    O    0.08867   0.45268   0.06332   1.000
    O460    O    0.39428   0.84812   0.95697   1.000
    O461    O    0.54629   0.84983   0.99316   1.000
    O462    O    0.40147   0.09553   0.00286   1.000
    O463    O    0.54481   0.09615   0.97736   1.000
    O464    O    0.92146   0.42717   0.03044   1.000
    O465    O    0.02119   0.52351   0.03494   1.000
    O466    O    0.02136   0.42380   0.93284   1.000
    O467    O    0.92278   0.52257   0.93577   1.000
    O468    O    0.02276   0.92707   0.43774   1.000
    O469    O    0.02592   0.02137   0.53049   1.000
    O470    O    0.92716   0.02814   0.43373   1.000
    O471    O    0.92596   0.92510   0.53648   1.000
    O472    O    0.42417   0.02099   0.93957   1.000
    O473    O    0.52291   0.02087   0.03528   1.000
    O474    O    0.42157   0.92625   0.03204   1.000
    O475    O    0.52104   0.92122   0.93532   1.000
    O476    O    0.42830   0.52758   0.43335   1.000
    O477    O    0.52606   0.52179   0.53143   1.000
    O478    O    0.42477   0.42691   0.53634   1.000
    O479    O    0.52255   0.42697   0.43889   1.000
    O480    O    0.01088   0.50899   0.95006   1.000
    O481    O    0.93384   0.43868   0.94501   1.000
    O482    O    0.93428   0.50961   0.01810   1.000
    O483    O    0.00955   0.43926   0.01649   1.000
    O484    O    0.93922   0.00967   0.51671   1.000
    O485    O    0.93373   0.94160   0.45064   1.000
    O486    O    0.01291   0.93894   0.52044   1.000
    O487    O    0.01350   0.01024   0.44653   1.000
    O488    O    0.50967   0.93699   0.01865   1.000
    O489    O    0.43407   0.93732   0.94849   1.000
    O490    O    0.51108   0.00530   0.95209   1.000
    O491    O    0.43618   0.00796   0.02204   1.000
    O492    O    0.51062   0.43834   0.52271   1.000
    O493    O    0.43778   0.44127   0.45040   1.000
    O494    O    0.51287   0.51133   0.44642   1.000
    O495    O    0.43889   0.51059   0.51699   1.000
    Zr496   Zr   0.97696   0.97518   0.56992   1.000
    Zr497   Zr   0.97244   0.97283   0.39726   1.000
    Zr498   Zr   0.56327   0.97039   0.98577   1.000
    Zr499   Zr   0.38458   0.97429   0.98510   1.000
    Zr500   Zr   0.97239   0.56047   0.98137   1.000
    Zr501   Zr   0.97204   0.38889   0.98259   1.000
    Zr502   Zr   0.97152   0.47346   0.06785   1.000
    Zr503   Zr   0.97327   0.47814   0.89871   1.000
    Zr504   Zr   0.56058   0.47434   0.48384   1.000
    Zr505   Zr   0.38750   0.47624   0.48331   1.000
    Zr506   Zr   0.97616   0.06011   0.48356   1.000
    Zr507   Zr   0.97343   0.89148   0.48338   1.000
    Zr508   Zr   0.47136   0.97037   0.07186   1.000
    Zr509   Zr   0.47306   0.97488   0.89923   1.000
    Zr510   Zr   0.06361   0.97365   0.48342   1.000
    Zr511   Zr   0.88501   0.97708   0.48750   1.000
    Zr512   Zr   0.47672   0.56188   0.48373   1.000
    Zr513   Zr   0.47483   0.38843   0.48697   1.000
    Zr514   Zr   0.47559   0.47809   0.56995   1.000
    Zr515   Zr   0.47537   0.47305   0.39747   1.000
    Zr516   Zr   0.06359   0.47409   0.98559   1.000
    Zr517   Zr   0.88472   0.47431   0.98148   1.000
    Zr518   Zr   0.47553   0.05665   0.98524   1.000
    Zr519   Zr   0.47226   0.88826   0.98580   1.000
    H520    H    0.00994   0.82905   0.54098   1.000
    H521    H    0.00943   0.12297   0.42763   1.000
    H522    H    0.50650   0.53404   0.33283   1.000
    H523    H    0.50914   0.61850   0.42261   1.000
    H524    H    0.47536   0.58587   0.39245   1.000
    H525    H    0.50094   0.41203   0.64178   1.000
    H526    H    0.50722   0.33058   0.54792   1.000
    H527    H    0.47598   0.36562   0.58041   1.000
    H528    H    0.93873   0.32667   0.92904   1.000
    H529    H    0.94406   0.41169   0.83759   1.000
    H530    H    0.97377   0.38491   0.87685   1.000
    H531    H    0.93751   0.61713   0.04222   1.000
    H532    H    0.94729   0.53737   0.13737   1.000
    H533    H    0.96944   0.56715   0.09410   1.000
    H534    H    0.44380   0.91106   0.83703   1.000
    H535    H    0.43823   0.82446   0.92852   1.000
    H536    H    0.47182   0.88163   0.87632   1.000
    H537    H    0.44777   0.03707   0.13730   1.000
    H538    H    0.44038   0.11628   0.04254   1.000
    H539    H    0.47075   0.06638   0.09330   1.000
    H540    H    0.97897   0.87941   0.59691   1.000
    H541    H    0.97679   0.06713   0.37589   1.000
    H542    H    0.00310   0.90884   0.63927   1.000
    H543    H    0.00597   0.03816   0.33834   1.000
    S544    S    0.99166   0.86212   0.37240   1.000
    S545    S    0.98971   0.08466   0.59677   1.000
    O546    O    0.04468   0.86800   0.37620   1.000
    O547    O    0.97237   0.82944   0.34015   1.000
    O548    O    0.96873   0.11546   0.62780   1.000
    O549    O    0.04339   0.07870   0.59802   1.000
    H550    H    0.95426   0.81513   0.54565   1.000
    H551    H    0.95238   0.13651   0.42972   1.000
    S552    S    0.46035   0.86128   0.09829   1.000
    S553    S    0.45720   0.08550   0.87364   1.000
    O554    O    0.47518   0.11876   0.84072   1.000
    O555    O    0.40419   0.07958   0.87719   1.000
    O556    O    0.48169   0.82887   0.12974   1.000
    O557    O    0.40721   0.86828   0.09756   1.000
    H558    H    0.49572   0.81171   0.92991   1.000
    H559    H    0.49560   0.13361   0.04738   1.000
    S560    S    0.95583   0.58784   0.86959   1.000
    S561    S    0.95753   0.36247   0.09463   1.000
    O562    O    0.90298   0.58029   0.87413   1.000
    O563    O    0.97125   0.62281   0.83706   1.000
    O564    O    0.90418   0.36756   0.09194   1.000
    O565    O    0.97663   0.33045   0.12852   1.000
    H566    H    0.99720   0.31536   0.93040   1.000
    H567    H    0.99318   0.63324   0.04867   1.000
    S568    S    0.49473   0.36339   0.37376   1.000
    S569    S    0.49370   0.58548   0.59677   1.000
    O570    O    0.47931   0.32983   0.34071   1.000
    O571    O    0.54760   0.37186   0.37676   1.000
    O572    O    0.54654   0.57844   0.59443   1.000
    O573    O    0.47627   0.61664   0.63128   1.000
    H574    H    0.44370   0.41796   0.63414   1.000
    H575    H    0.44888   0.52908   0.32673   1.000
    F576    F    0.55058   0.22016   0.45856   1.000
    F577    F    0.54286   0.29086   0.44207   1.000
    F578    F    0.54298   0.26668   0.51598   1.000
    F579    F    0.65139   0.40130   0.52951   1.000
    F580    F    0.71794   0.39258   0.49175   1.000
    F581    F    0.71308   0.37994   0.56724   1.000
    F582    F    0.78484   0.26178   0.54938   1.000
    F583    F    0.74529   0.30899   0.59087   1.000
    F584    F    0.78067   0.33399   0.52749   1.000
    F585    F    0.62285   0.20692   0.40870   1.000
    F586    F    0.61076   0.16856   0.47463   1.000
    F587    F    0.68086   0.16881   0.44182   1.000
    F588    F    0.66686   0.18695   0.54987   1.000
    F589    F    0.70914   0.13864   0.59046   1.000
    F590    F    0.66793   0.11532   0.52902   1.000
    F591    F    0.73791   0.62615   0.39493   1.000
    F592    F    0.78337   0.61482   0.45762   1.000
    F593    F    0.78458   0.68007   0.42038   1.000
    F594    F    0.68595   0.78304   0.53303   1.000
    F595    F    0.63528   0.74670   0.57491   1.000
    F596    F    0.61203   0.77893   0.50883   1.000
    F597    F    0.53803   0.65378   0.51773   1.000
    F598    F    0.55332   0.71638   0.47906   1.000
    F599    F    0.56279   0.71108   0.55503   1.000
    F600    F    0.73020   0.55579   0.43809   1.000
    F601    F    0.65505   0.56067   0.42247   1.000
    F602    F    0.68470   0.55125   0.49667   1.000
    F603    F    0.42075   0.28676   0.51141   1.000
    F604    F    0.39331   0.22911   0.47128   1.000
    F605    F    0.38955   0.23236   0.54869   1.000
    F606    F    0.26390   0.16826   0.53324   1.000
    F607    F    0.31676   0.20214   0.57428   1.000
    F608    F    0.33833   0.16637   0.50988   1.000
    F609    F    0.21922   0.39301   0.44102   1.000
    F610    F    0.29372   0.38947   0.42362   1.000
    F611    F    0.26662   0.39698   0.49897   1.000
    F612    F    0.20931   0.32384   0.39601   1.000
    F613    F    0.16879   0.33334   0.46173   1.000
    F614    F    0.16675   0.26816   0.42397   1.000
    F615    F    0.40020   0.72985   0.46184   1.000
    F616    F    0.40713   0.66095   0.43813   1.000
    F617    F    0.40681   0.67754   0.51351   1.000
    F618    F    0.32907   0.74405   0.40835   1.000
    F619    F    0.33791   0.78118   0.47460   1.000
    F620    F    0.26853   0.77949   0.43889   1.000
    F621    F    0.16913   0.68617   0.54998   1.000
    F622    F    0.21399   0.64099   0.59080   1.000
    F623    F    0.17086   0.61450   0.53125   1.000
    F624    F    0.30083   0.54752   0.53376   1.000
    F625    F    0.23776   0.55465   0.48760   1.000
    F626    F    0.23445   0.56812   0.56190   1.000
    F627    F    0.53292   0.44440   0.67309   1.000
    F628    F    0.55556   0.45183   0.74265   1.000
    F629    F    0.56763   0.38706   0.70534   1.000
    F630    F    0.62205   0.38895   0.76758   1.000
    F631    F    0.61779   0.45890   0.79324   1.000
    F632    F    0.68499   0.41997   0.79672   1.000
    F633    F    0.77649   0.52499   0.62372   1.000
    F634    F    0.78853   0.51770   0.69791   1.000
    F635    F    0.73346   0.56471   0.67257   1.000
    F636    F    0.66014   0.49079   0.55294   1.000
    F637    F    0.73375   0.47585   0.57016   1.000
    F638    F    0.70185   0.54455   0.58345   1.000
    F639    F    0.33004   0.56124   0.76723   1.000
    F640    F    0.33931   0.49044   0.79271   1.000
    F641    F    0.27020   0.52685   0.79711   1.000
    F642    F    0.19488   0.40407   0.63613   1.000
    F643    F    0.16836   0.47492   0.63184   1.000
    F644    F    0.16534   0.43488   0.69760   1.000
    F645    F    0.29731   0.45763   0.55395   1.000
    F646    F    0.22157   0.45981   0.56626   1.000
    F647    F    0.26448   0.39932   0.58700   1.000
    F648    F    0.41621   0.50986   0.66455   1.000
    F649    F    0.40293   0.49626   0.73658   1.000
    F650    F    0.38395   0.56313   0.70499   1.000
    F651    F    0.21873   0.51814   0.40434   1.000
    F652    F    0.29274   0.54001   0.39953   1.000
    F653    F    0.27032   0.46908   0.42191   1.000
    F654    F    0.17203   0.53109   0.27279   1.000
    F655    F    0.21395   0.56117   0.32941   1.000
    F656    F    0.16598   0.50357   0.34305   1.000
    F657    F    0.26621   0.40115   0.18747   1.000
    F658    F    0.32544   0.37327   0.22931   1.000
    F659    F    0.33748   0.43101   0.18238   1.000
    F660    F    0.73552   0.43403   0.40898   1.000
    F661    F    0.66269   0.40917   0.40636   1.000
    F662    F    0.68101   0.48198   0.42244   1.000
    F663    F    0.55549   0.51892   0.23528   1.000
    F664    F    0.55528   0.53948   0.30626   1.000
    F665    F    0.54543   0.46332   0.28175   1.000
    F666    F    0.68727   0.53984   0.18744   1.000
    F667    F    0.62978   0.56883   0.22869   1.000
    F668    F    0.61484   0.51125   0.18263   1.000
    F669    F    0.77938   0.41168   0.27896   1.000
    F670    F    0.73764   0.38463   0.33782   1.000
    F671    F    0.78815   0.44136   0.34730   1.000
    F672    F    0.70998   0.82512   0.39493   1.000
    F673    F    0.66780   0.83318   0.45967   1.000
    F674    F    0.66742   0.76887   0.42125   1.000
    F675    F    0.72123   0.89359   0.43994   1.000
    F676    F    0.79704   0.88961   0.42568   1.000
    F677    F    0.76658   0.89675   0.49907   1.000
    F678    F    0.92127   0.78572   0.50434   1.000
    F679    F    0.89242   0.72569   0.47177   1.000
    F680    F    0.89097   0.73465   0.54876   1.000
    F681    F    0.76436   0.66755   0.53352   1.000
    F682    F    0.81852   0.70069   0.57421   1.000
    F683    F    0.83854   0.66594   0.50974   1.000
    F684    F    0.82716   0.24550   0.40884   1.000
    F685    F    0.83466   0.28381   0.47425   1.000
    F686    F    0.76515   0.27957   0.43907   1.000
    F687    F    0.89659   0.23368   0.46260   1.000
    F688    F    0.90335   0.16662   0.43401   1.000
    F689    F    0.90688   0.17936   0.51187   1.000
    F690    F    0.79600   0.04537   0.53017   1.000
    F691    F    0.73381   0.05904   0.48387   1.000
    F692    F    0.73140   0.06597   0.56078   1.000
    F693    F    0.18820   0.28074   0.53387   1.000
    F694    F    0.13638   0.24262   0.57505   1.000
    F695    F    0.11385   0.27604   0.50988   1.000
    F696    F    0.04355   0.14891   0.52031   1.000
    F697    F    0.05685   0.20928   0.47536   1.000
    F698    F    0.06301   0.21032   0.55270   1.000
    F699    F    0.23009   0.05598   0.43433   1.000
    F700    F    0.15436   0.06061   0.41923   1.000
    F701    F    0.18271   0.05100   0.49206   1.000
    F702    F    0.24360   0.12788   0.39214   1.000
    F703    F    0.28312   0.11498   0.45723   1.000
    F704    F    0.28636   0.18225   0.42355   1.000
    F705    F    0.15105   0.89808   0.53380   1.000
    F706    F    0.21831   0.89266   0.49579   1.000
    F707    F    0.21370   0.87656   0.56985   1.000
    F708    F    0.28632   0.75863   0.54977   1.000
    F709    F    0.24698   0.80639   0.59077   1.000
    F710    F    0.28443   0.83080   0.52832   1.000
    F711    F    0.05046   0.71998   0.45824   1.000
    F712    F    0.04415   0.79115   0.44318   1.000
    F713    F    0.04665   0.76559   0.51664   1.000
    F714    F    0.12234   0.70483   0.40971   1.000
    F715    F    0.11333   0.66834   0.47854   1.000
    F716    F    0.18076   0.66566   0.44154   1.000
    F717    F    0.33181   0.05562   0.26910   1.000
    F718    F    0.33478   0.98506   0.29465   1.000
    F719    F    0.26841   0.02543   0.29821   1.000
    F720    F    0.41814   0.00229   0.17175   1.000
    F721    F    0.39666   0.99430   0.24152   1.000
    F722    F    0.38375   0.06006   0.20320   1.000
    F723    F    0.29622   0.94676   0.05233   1.000
    F724    F    0.22196   0.96047   0.06747   1.000
    F725    F    0.25572   0.89553   0.08863   1.000
    F726    F    0.18851   0.89956   0.13796   1.000
    F727    F    0.16937   0.97228   0.12946   1.000
    F728    F    0.16096   0.93550   0.19626   1.000
    F729    F    0.62165   0.88700   0.26833   1.000
    F730    F    0.61222   0.95828   0.29172   1.000
    F731    F    0.68039   0.92285   0.29891   1.000
    F732    F    0.53411   0.93568   0.16589   1.000
    F733    F    0.54990   0.95198   0.23646   1.000
    F734    F    0.56763   0.88420   0.20724   1.000
    F735    F    0.75496   0.04529   0.13793   1.000
    F736    F    0.78535   0.97544   0.12970   1.000
    F737    F    0.78937   0.01250   0.19581   1.000
    F738    F    0.65891   0.98793   0.05160   1.000
    F739    F    0.73417   0.98343   0.06698   1.000
    F740    F    0.69294   0.04610   0.08117   1.000
    F741    F    0.17091   0.03445   0.77291   1.000
    F742    F    0.21406   0.06384   0.82908   1.000
    F743    F    0.16584   0.00586   0.84303   1.000
    F744    F    0.21523   0.01876   0.90268   1.000
    F745    F    0.28896   0.04119   0.90090   1.000
    F746    F    0.26727   0.96964   0.91984   1.000
    F747    F    0.26639   0.90584   0.68564   1.000
    F748    F    0.32455   0.87986   0.73034   1.000
    F749    F    0.33658   0.93598   0.68048   1.000
    F750    F    0.39663   0.93129   0.73372   1.000
    F751    F    0.39946   0.91164   0.80492   1.000
    F752    F    0.40790   0.98588   0.77971   1.000
    F753    F    0.55476   0.02605   0.73721   1.000
    F754    F    0.54805   0.03851   0.80896   1.000
    F755    F    0.54446   0.96675   0.77898   1.000
    F756    F    0.68390   0.04566   0.68567   1.000
    F757    F    0.62644   0.07493   0.72692   1.000
    F758    F    0.61323   0.01411   0.68435   1.000
    F759    F    0.73579   0.93577   0.90648   1.000
    F760    F    0.66234   0.91130   0.90331   1.000
    F761    F    0.68104   0.98213   0.92395   1.000
    F762    F    0.77988   0.91900   0.77668   1.000
    F763    F    0.74129   0.89069   0.83633   1.000
    F764    F    0.78799   0.95098   0.84442   1.000
    F765    F    0.73838   0.12704   0.89414   1.000
    F766    F    0.78261   0.11687   0.95784   1.000
    F767    F    0.78386   0.18178   0.91997   1.000
    F768    F    0.73007   0.05761   0.94051   1.000
    F769    F    0.68142   0.05174   0.99727   1.000
    F770    F    0.52873   0.16636   0.99783   1.000
    F771    F    0.55843   0.23088   0.97761   1.000
    F772    F    0.55876   0.20661   0.05150   1.000
    F773    F    0.68789   0.27886   0.03549   1.000
    F774    F    0.63124   0.24433   0.07221   1.000
    F775    F    0.61475   0.28588   0.00987   1.000
    F776    F    0.39666   0.22883   0.95596   1.000
    F777    F    0.40605   0.15771   0.94058   1.000
    F778    F    0.40528   0.18222   0.01395   1.000
    F779    F    0.32518   0.24670   0.90990   1.000
    F780    F    0.33732   0.28135   0.97660   1.000
    F781    F    0.26685   0.28284   0.94330   1.000
    F782    F    0.16495   0.18503   0.04829   1.000
    F783    F    0.20661   0.13906   0.09233   1.000
    F784    F    0.17086   0.11343   0.02849   1.000
    F785    F    0.29953   0.04545   0.02828   1.000
    F786    F    0.23097   0.05526   0.99358   1.000
    F787    F    0.24000   0.06789   0.06813   1.000
    F788    F    0.55026   0.71765   0.96038   1.000
    F789    F    0.54725   0.78696   0.93594   1.000
    F790    F    0.54302   0.76762   0.01328   1.000
    F791    F    0.62267   0.70541   0.91046   1.000
    F792    F    0.61058   0.66764   0.97642   1.000
    F793    F    0.68041   0.66589   0.94347   1.000
    F794    F    0.78381   0.76189   0.04784   1.000
    F795    F    0.74377   0.80764   0.09260   1.000
    F796    F    0.78005   0.83436   0.03026   1.000
    F797    F    0.64668   0.89888   0.03539   1.000
    F798    F    0.71274   0.89423   0.99403   1.000
    F799    F    0.71009   0.87842   0.06966   1.000
    F800    F    0.40316   0.80248   0.02685   1.000
    F801    F    0.39742   0.74432   0.97803   1.000
    F802    F    0.38596   0.73772   0.05488   1.000
    F803    F    0.26216   0.66510   0.03082   1.000
    F804    F    0.31336   0.69863   0.07304   1.000
    F805    F    0.33656   0.67183   0.00596   1.000
    F806    F    0.20538   0.82476   0.89023   1.000
    F807    F    0.16669   0.83601   0.95571   1.000
    F808    F    0.16207   0.77037   0.91945   1.000
    F809    F    0.21944   0.89557   0.93549   1.000
    F810    F    0.29566   0.88974   0.92367   1.000
    F811    F    0.26347   0.89679   0.99619   1.000
    F812    F    0.82826   0.55667   0.26924   1.000
    F813    F    0.83662   0.48668   0.29650   1.000
    F814    F    0.76769   0.52218   0.29859   1.000
    F815    F    0.69359   0.39613   0.14124   1.000
    F816    F    0.66180   0.46519   0.13347   1.000
    F817    F    0.66223   0.42973   0.19982   1.000
    F818    F    0.78901   0.45559   0.05153   1.000
    F819    F    0.71454   0.45944   0.06813   1.000
    F820    F    0.75593   0.39717   0.08483   1.000
    F821    F    0.91683   0.50259   0.17147   1.000
    F822    F    0.89714   0.49480   0.24127   1.000
    F823    F    0.87952   0.55950   0.20302   1.000
    F824    F    0.23594   0.43458   0.90655   1.000
    F825    F    0.16307   0.41164   0.90467   1.000
    F826    F    0.18305   0.48442   0.92025   1.000
    F827    F    0.05440   0.52055   0.73442   1.000
    F828    F    0.05125   0.53684   0.80635   1.000
    F829    F    0.04571   0.46330   0.78068   1.000
    F830    F    0.18740   0.54605   0.68958   1.000
    F831    F    0.12685   0.57286   0.72915   1.000
    F832    F    0.11696   0.51553   0.68180   1.000
    F833    F    0.28029   0.41822   0.77695   1.000
    F834    F    0.24080   0.38933   0.83626   1.000
    F835    F    0.28891   0.44775   0.84543   1.000
    F836    F    0.76538   0.40689   0.68491   1.000
    F837    F    0.82326   0.37617   0.72581   1.000
    F838    F    0.83684   0.43606   0.68041   1.000
    F839    F    0.89583   0.41942   0.73763   1.000
    F840    F    0.89478   0.40910   0.81182   1.000
    F841    F    0.90683   0.48061   0.77511   1.000
    F842    F    0.67082   0.53331   0.76890   1.000
    F843    F    0.71379   0.56333   0.82402   1.000
    F844    F    0.66557   0.50584   0.84055   1.000
    F845    F    0.71732   0.52285   0.89881   1.000
    F846    F    0.79227   0.53859   0.89773   1.000
    F847    F    0.76424   0.46781   0.91544   1.000
    F848    F    0.26270   0.54463   0.13451   1.000
    F849    F    0.28613   0.47287   0.13033   1.000
    F850    F    0.28981   0.51066   0.19588   1.000
    F851    F    0.15972   0.49348   0.04909   1.000
    F852    F    0.23375   0.48365   0.06757   1.000
    F853    F    0.19531   0.54808   0.08441   1.000
    F854    F    0.12227   0.38800   0.26944   1.000
    F855    F    0.11546   0.45986   0.29050   1.000
    F856    F    0.18407   0.42252   0.29559   1.000
    F857    F    0.03884   0.43278   0.16129   1.000
    F858    F    0.04989   0.45245   0.23224   1.000
    F859    F    0.07139   0.38407   0.20721   1.000
    F860    F    0.14898   0.39830   0.03933   1.000
    F861    F    0.20946   0.39312   0.99006   1.000
    F862    F    0.21722   0.38046   0.06656   1.000
    F863    F    0.05240   0.21842   0.96059   1.000
    F864    F    0.04733   0.28725   0.93563   1.000
    F865    F    0.04472   0.26974   0.01290   1.000
    F866    F    0.28430   0.26011   0.04784   1.000
    F867    F    0.24325   0.30518   0.09260   1.000
    F868    F    0.28010   0.33256   0.02911   1.000
    F869    F    0.12257   0.20495   0.90990   1.000
    F870    F    0.11352   0.16600   0.97628   1.000
    F871    F    0.18242   0.16839   0.94236   1.000
    F872    F    0.75740   0.16954   0.03542   1.000
    F873    F    0.80913   0.20683   0.07657   1.000
    F874    F    0.83148   0.16935   0.01388   1.000
    F875    F    0.91171   0.29038   0.01046   1.000
    F876    F    0.88923   0.22764   0.97771   1.000
    F877    F    0.88428   0.23694   0.05470   1.000
    F878    F    0.71020   0.32522   0.89348   1.000
    F879    F    0.66736   0.33591   0.95676   1.000
    F880    F    0.66420   0.27059   0.91952   1.000
    F881    F    0.71939   0.39421   0.93845   1.000
    F882    F    0.79400   0.38772   0.92025   1.000
    F883    F    0.76678   0.39968   0.99480   1.000
    F884    F    0.79861   0.54600   0.02716   1.000
    F885    F    0.72941   0.55586   0.99372   1.000
    F886    F    0.74010   0.56794   0.06834   1.000
    F887    F    0.66491   0.68550   0.05164   1.000
    F888    F    0.70765   0.63945   0.09292   1.000
    F889    F    0.66927   0.61377   0.03107   1.000
    F890    F    0.82124   0.74513   0.90721   1.000
    F891    F    0.83740   0.78172   0.97262   1.000
    F892    F    0.76539   0.78334   0.94358   1.000
    F893    F    0.89957   0.72875   0.95582   1.000
    F894    F    0.90265   0.65728   0.94051   1.000
    F895    F    0.90264   0.68221   0.01412   1.000
    F896    F    0.18813   0.77885   0.03556   1.000
    F897    F    0.12858   0.74665   0.06942   1.000
    F898    F    0.11646   0.78718   0.00614   1.000
    F899    F    0.02872   0.66632   0.99755   1.000
    F900    F    0.05716   0.73192   0.97834   1.000
    F901    F    0.05836   0.70532   0.05216   1.000
    F902    F    0.23704   0.62690   0.89295   1.000
    F903    F    0.28152   0.61660   0.95578   1.000
    F904    F    0.27970   0.68319   0.91872   1.000
    F905    F    0.22899   0.55760   0.94333   1.000
    F906    F    0.15433   0.56207   0.92430   1.000
    F907    F    0.18141   0.55557   0.00056   1.000
    F908    F    0.05546   0.01679   0.23350   1.000
    F909    F    0.05262   0.03762   0.30442   1.000
    F910    F    0.04788   0.96213   0.28269   1.000
    F911    F    0.18923   0.04170   0.19131   1.000
    F912    F    0.12867   0.07015   0.22966   1.000
    F913    F    0.11744   0.01416   0.18217   1.000
    F914    F    0.23549   0.93106   0.40908   1.000
    F915    F    0.16282   0.90810   0.40560   1.000
    F916    F    0.18249   0.98047   0.42352   1.000
    F917    F    0.28023   0.91369   0.27966   1.000
    F918    F    0.23860   0.88456   0.33656   1.000
    F919    F    0.28597   0.94344   0.34782   1.000
    F920    F    0.67060   0.03120   0.27363   1.000
    F921    F    0.71022   0.06038   0.33290   1.000
    F922    F    0.66170   0.00245   0.34326   1.000
    F923    F    0.71387   0.01650   0.40486   1.000
    F924    F    0.78781   0.03962   0.40242   1.000
    F925    F    0.76613   0.96748   0.42174   1.000
    F926    F    0.89620   0.92263   0.23789   1.000
    F927    F    0.89704   0.90868   0.31076   1.000
    F928    F    0.90348   0.98184   0.28053   1.000
    F929    F    0.76469   0.90302   0.19107   1.000
    F930    F    0.82345   0.87477   0.23311   1.000
    F931    F    0.83636   0.93108   0.18399   1.000
    F932    F    0.12471   0.88932   0.76688   1.000
    F933    F    0.11865   0.95916   0.79362   1.000
    F934    F    0.18616   0.92137   0.79641   1.000
    F935    F    0.03320   0.94346   0.67274   1.000
    F936    F    0.05537   0.95123   0.74240   1.000
    F937    F    0.07136   0.88751   0.70332   1.000
    F938    F    0.16304   0.99085   0.54625   1.000
    F939    F    0.23595   0.98940   0.56622   1.000
    F940    F    0.19160   0.04929   0.58265   1.000
    F941    F    0.25858   0.05073   0.63554   1.000
    F942    F    0.28872   0.98180   0.62797   1.000
    F943    F    0.28957   0.01748   0.69446   1.000
    F944    F    0.69607   0.89846   0.64411   1.000
    F945    F    0.66107   0.96578   0.63209   1.000
    F946    F    0.66178   0.93318   0.70136   1.000
    F947    F    0.78939   0.95799   0.55196   1.000
    F948    F    0.71517   0.96307   0.56968   1.000
    F949    F    0.75562   0.89972   0.58404   1.000
    F950    F    0.90920   0.00896   0.65998   1.000
    F951    F    0.90085   0.00308   0.73410   1.000
    F952    F    0.87956   0.06599   0.69683   1.000
    F953    F    0.82935   0.06297   0.76465   1.000
    F954    F    0.83824   0.99339   0.79236   1.000
    F955    F    0.76936   0.02955   0.79676   1.000
    F956    F    0.39661   0.42156   0.23622   1.000
    F957    F    0.40233   0.41229   0.30982   1.000
    F958    F    0.40624   0.48243   0.27467   1.000
    F959    F    0.65441   0.06157   0.92381   1.000
